%nprocshared=4
%mem=100MW
%chk=AAEVYOVXGOFMJO-UHFFFAOYSA-N.chk
#b3lyp/6-31+G(d) opt freq

gas opt

0 1
S   -0.1240   -2.9232    0.1673
C   -1.9263   -3.0908    0.1693
C    0.0199   -1.1675    0.1295
N    1.2222   -0.5987    0.1183
C    1.3304    0.7257    0.0894
N    2.5780    1.3159    0.0773
C    3.7828    0.4826    0.0963
C    4.1316    0.0577   -1.3315
C    4.9456    1.2808    0.6894
N    0.2371    1.4819    0.0716
C   -0.9648    0.9137    0.0828
N   -2.0996    1.6991    0.0639
C   -3.4240    1.0731    0.0763
C   -4.4446    2.0503    0.6630
C   -3.8296    0.7095   -1.3535
N   -1.0737   -0.4108    0.1067
H   -2.3348   -2.6322   -0.7312
H   -2.1929   -4.1475    0.1919
H   -2.3364   -2.5938    1.0484
H    2.6570    2.2824    0.0561
H    3.6022   -0.4032    0.7052
H    4.3122    0.9436   -1.9404
H    5.0280   -0.5623   -1.3173
H    3.3032   -0.5109   -1.7540
H    4.6970    1.5835    1.7066
H    5.8420    0.6608    0.7036
H    5.1261    2.1667    0.0805
H   -2.0201    2.6656    0.0425
H   -3.3934    0.1701    0.6860
H   -4.4752    2.9533    0.0533
H   -5.4300    1.5845    0.6722
H   -4.1556    2.3093    1.6816
H   -3.8602    1.6124   -1.9633
H   -3.1025    0.0133   -1.7715
H   -4.8150    0.2437   -1.3443


