%nprocshared=4
%mem=100MW
%chk=ABICJYZKIYUWEE-UHFFFAOYSA-N.chk
#b3lyp/6-31+G(d) opt freq

gas opt

0 1
O   -2.9406   -0.0448   -0.1490
N   -1.8109    0.0130    0.3027
O   -1.6390    0.0769    1.5068
C   -0.6587   -0.0003   -0.6021
C    0.1198    1.2850   -0.3939
O   -0.4017    2.3682   -0.5505
N    1.4145    1.1778   -0.0273
C    2.0046   -0.0098    0.1497
O    3.1739   -0.0140    0.4795
N    1.4013   -1.1932   -0.0105
C    0.1051   -1.2911   -0.3747
O   -0.4285   -2.3705   -0.5156
H   -1.0341   -0.0075   -1.6254
H    1.9326    1.9860    0.1117
H    1.9104   -2.0050    0.1396


