%nprocshared=4
%mem=100MW
%chk=ADIMAYPTOBDMTL-UHFFFAOYSA-N.chk
#b3lyp/6-31+G(d) opt freq

gas opt

0 1
Cl   -3.8913   -1.6736   -0.7265
C   -2.2319   -1.6847   -0.2166
C   -1.4507   -0.5644   -0.3911
C   -0.1084   -0.5610    0.0175
C    0.6684    0.6689   -0.2031
N    1.8901    0.7054   -0.6024
C    2.6491   -0.5137   -0.8781
O    3.9418   -0.1693   -1.3806
C    2.7967   -1.2950    0.3990
O    3.9056   -1.4769    0.8553
N    1.7418   -1.7914    1.0414
C    0.4290   -1.7048    0.6049
C   -0.3779   -2.8316    0.7729
C   -1.6954   -2.8191    0.3713
C   -0.0074    1.9618    0.0546
C   -1.0979    2.0212    0.9221
C   -1.7229    3.2284    1.1585
C   -1.2698    4.3784    0.5370
C   -0.1889    4.3258   -0.3248
C    0.4479    3.1255   -0.5648
H   -1.8743    0.3185   -0.8464
H    2.1186   -1.1149   -1.6166
H    3.9213    0.3444   -2.1996
H    1.9045   -2.2497    1.8807
H    0.0340   -3.7212    1.2260
H   -2.3089   -3.6975    0.5073
H   -1.4527    1.1240    1.4075
H   -2.5676    3.2756    1.8297
H   -1.7623    5.3211    0.7252
H    0.1598    5.2268   -0.8076
H    1.2917    3.0856   -1.2378


