%nprocshared=4
%mem=100MW
%chk=AFFLGGQVNFXPEV-UHFFFAOYSA-N.chk
#b3lyp/6-31+G(d) opt freq

gas opt

0 1
C   -4.4581   -0.3129   -0.2863
C   -5.4043   -0.1878    0.6110
C   -3.2221    0.5452   -0.2025
C   -1.9806   -0.3490   -0.1871
C   -0.7257    0.5221   -0.1021
C    0.5157   -0.3721   -0.0867
C    1.7706    0.4991   -0.0017
C    3.0121   -0.3951    0.0137
C    4.2670    0.4760    0.0987
C    5.5084   -0.4182    0.1141
H   -4.5619   -1.0340   -1.0835
H   -6.2902   -0.8027    0.5510
H   -5.2986    0.5303    1.4108
H   -3.1812    1.2088   -1.0662
H   -3.2533    1.1392    0.7109
H   -2.0215   -1.0126    0.6766
H   -1.9494   -0.9430   -1.1005
H   -0.6848    1.1857   -0.9658
H   -0.7570    1.1161    0.8113
H    0.4749   -1.0357    0.7770
H    0.5470   -0.9661   -1.0001
H    1.8115    1.1627   -0.8654
H    1.7394    1.0931    0.9117
H    2.9712   -1.0587    0.8774
H    3.0433   -0.9891   -0.8997
H    4.3079    1.1396   -0.7650
H    4.2358    1.0700    1.0121
H    6.4025    0.2024    0.1746
H    5.4676   -1.0818    0.9778
H    5.5397   -1.0122   -0.7993


