%nprocshared=4
%mem=100MW
%chk=AFOGBLYPWJJVAL-UHFFFAOYSA-N.chk
#b3lyp/6-31+G(d) opt freq

gas opt

0 1
S    1.6439   -1.4250   -0.0576
O    2.3927   -2.2241    0.8479
O    1.5190   -1.7271   -1.4405
N    0.1035   -1.3527    0.5461
C   -0.8375   -0.6299   -0.0931
O   -0.5556   -0.0311   -1.1130
N   -2.0911   -0.5710    0.3983
C   -3.1141    0.2145   -0.2965
C   -4.4380    0.1142    0.4639
C   -5.5063    0.9347   -0.2617
C   -6.8302    0.8343    0.4987
C    2.3183    0.2000    0.0377
C    3.0013    0.5994    1.1713
C    3.5304    1.8743    1.2461
C    3.3769    2.7496    0.1873
C    2.6947    2.3499   -0.9466
C    2.1693    1.0735   -1.0232
H   -0.1214   -1.8304    1.3598
H   -2.3161   -1.0488    1.2120
H   -2.8008    1.2574   -0.3446
H   -3.2452   -0.1724   -1.3070
H   -4.7512   -0.9287    0.5120
H   -4.3068    0.5012    1.4744
H   -5.1930    1.9776   -0.3098
H   -5.6374    0.5477   -1.2722
H   -7.5913    1.4188   -0.0182
H   -7.1434   -0.2086    0.5468
H   -6.6990    1.2213    1.5092
H    3.1213   -0.0845    1.9985
H    4.0635    2.1866    2.1320
H    3.7897    3.7459    0.2460
H    2.5745    3.0338   -1.7737
H    1.6363    0.7612   -1.9091


