%nprocshared=4
%mem=100MW
%chk=AFPHTEQTJZKQAQ-UHFFFAOYSA-N.chk
#b3lyp/6-31+G(d) opt freq

gas opt

0 1
O    2.5091   -1.7543    0.0012
N    2.4952   -0.5364    0.0008
O    3.5429    0.0846   -0.0041
C    1.2049    0.1889    0.0002
C    0.0190   -0.5161    0.0000
C   -1.1970    0.1697   -0.0006
C   -2.4708   -0.5785   -0.0002
O   -2.4617   -1.7932    0.0006
O   -3.6424    0.0863   -0.0008
C   -1.2038    1.5662   -0.0010
C   -0.0109    2.2584   -0.0009
C    1.1909    1.5723    0.0054
H    0.0314   -1.5960    0.0001
H   -4.4495   -0.4464   -0.0006
H   -2.1411    2.1028   -0.0019
H   -0.0147    3.3384   -0.0012
H    2.1221    2.1193    0.0059


