%nprocshared=4
%mem=100MW
%chk=AHJKRLASYNVKDZ-UHFFFAOYSA-N.chk
#b3lyp/6-31+G(d) opt freq

gas opt

0 1
Cl   -1.6265    3.1445   -0.4264
C   -0.0385    2.3425   -0.1336
Cl    0.1192    1.9429    1.6174
C    0.0437    1.0571   -0.9595
C    1.3441    0.3541   -0.6665
C    1.4446   -1.0136   -0.8407
C    2.6369   -1.6590   -0.5721
C    3.7302   -0.9358   -0.1293
Cl    5.2283   -1.7457    0.2076
C    3.6291    0.4330    0.0444
C    2.4376    1.0779   -0.2291
C   -1.1078    0.1541   -0.5993
C   -2.1251   -0.0647   -1.5094
C   -3.1815   -0.8927   -1.1797
C   -3.2204   -1.5030    0.0613
Cl   -4.5466   -2.5437    0.4760
C   -2.2018   -1.2840    0.9716
C   -1.1435   -0.4596    0.6389
H    0.7677    3.0149   -0.4269
H   -0.0054    1.3030   -2.0202
H    0.5911   -1.5780   -1.1863
H    2.7151   -2.7276   -0.7076
H    4.4821    0.9980    0.3900
H    2.3586    2.1465   -0.0936
H   -2.0946    0.4118   -2.4782
H   -3.9765   -1.0630   -1.8905
H   -2.2316   -1.7602    1.9405
H   -0.3483   -0.2885    1.3493


