%nprocshared=4
%mem=100MW
%chk=AMRQXHFXNZFDCH-UHFFFAOYSA-N.chk
#b3lyp/6-31+G(d) opt freq

gas opt

0 1
O   -0.7968   -0.8253    0.7241
C   -0.6438    0.2619    0.2034
O    0.5920    0.7827    0.0829
C    1.6945   -0.0100    0.5972
C    2.9376    0.2788   -0.2041
O    2.9220    1.1394   -1.0585
N    4.0668   -0.4192    0.0287
C    5.2753   -0.1384   -0.7504
C    6.4045   -1.0630   -0.2910
C    1.9390    0.3478    2.0646
N   -1.7105    0.9440   -0.2585
C   -2.9796    0.3544   -0.2400
C   -4.1078    1.1376   -0.0345
C   -5.3589    0.5528   -0.0173
C   -5.4887   -0.8112   -0.2041
C   -4.3673   -1.5939   -0.4090
C   -3.1139   -1.0143   -0.4329
H    1.4487   -1.0690    0.5176
H    4.0793   -1.1075    0.7120
H    5.0736   -0.3089   -1.8079
H    5.5717    0.8997   -0.5997
H    7.3037   -0.8540   -0.8706
H    6.6062   -0.8925    0.7665
H    6.1081   -2.1010   -0.4416
H    1.0398    0.1389    2.6442
H    2.7666   -0.2473    2.4507
H    2.1847    1.4068    2.1442
H   -1.5986    1.8435   -0.6037
H   -4.0069    2.2028    0.1121
H   -6.2366    1.1613    0.1424
H   -6.4681   -1.2663   -0.1895
H   -4.4720   -2.6589   -0.5545
H   -2.2384   -1.6260   -0.5930


