%nprocshared=4
%mem=100MW
%chk=AQCHWTWZEMGIFD-UHFFFAOYSA-N.chk
#b3lyp/6-31+G(d) opt freq

gas opt

0 1
Cl   -4.2324   -1.7305   -0.2093
C   -2.6260   -1.0761   -0.1387
C   -2.4459    0.2893    0.0309
S   -3.8493    1.3450    0.1752
O   -4.7059    0.7444    1.1368
O   -3.3452    2.6675    0.3017
N   -4.6560    1.2882   -1.2699
C   -1.1771    0.8263    0.0879
C   -0.0706   -0.0122   -0.0262
C    1.3063    0.5098    0.0217
O    1.5153    1.7033   -0.0833
N    2.3326   -0.3507    0.1838
C    3.6447    0.1322    0.1517
C    4.3348    0.1928   -1.0523
C    3.6704   -0.2618   -2.3263
C    5.6301    0.6706   -1.0807
C    6.2405    1.0880    0.0880
C    5.5565    1.0289    1.2881
C    4.2586    0.5574    1.3225
C    2.0984   -1.7794    0.3931
C    1.9564   -2.0553    1.8913
N    0.8731   -2.2007   -0.2970
C   -0.2565   -1.3966   -0.1945
C   -1.5358   -1.9207   -0.2462
H   -5.6177    1.4125   -1.2937
H   -4.1668    1.1307   -2.0926
H   -1.0421    1.8897    0.2197
H    3.1560    0.5808   -2.7885
H    4.4249   -0.6473   -3.0120
H    2.9498   -1.0476   -2.0999
H    6.1671    0.7180   -2.0165
H    7.2539    1.4606    0.0633
H    6.0360    1.3556    2.1990
H    3.7246    0.5118    2.2602
H    2.9434   -2.3449    0.0005
H    1.1154   -1.4862    2.2874
H    1.7817   -3.1195    2.0497
H    2.8708   -1.7569    2.4039
H    0.8521   -3.0216   -0.8133
H   -1.6825   -2.9831   -0.3734


