%nprocshared=4
%mem=100MW
%chk=AQIXAKUUQRKLND-UHFFFAOYSA-N.chk
#b3lyp/6-31+G(d) opt freq

gas opt

0 1
S    1.2232   -0.3800    0.1516
C   -0.3553    0.5118    0.2116
C   -1.5080   -0.4795    0.0401
N   -2.7828    0.2408    0.0885
C   -3.9660   -0.4463   -0.0443
N   -3.9537   -1.7378   -0.2131
C   -5.2136   -2.4847   -0.2427
N   -5.1664    0.2319    0.0013
C   -5.1778    1.5851    0.0715
N   -5.1873    2.7195    0.1304
C    2.4470    0.9413    0.3689
C    3.8334    0.3513    0.3416
C    4.6004    0.1830   -0.7524
C    4.2367    0.5460   -2.1691
N    5.7742   -0.3808   -0.3303
H    6.5299   -0.6226   -0.8882
C    5.6835   -0.5374    1.0080
N    4.5220   -0.0928    1.4035
H   -0.4507    1.0174    1.1725
H   -0.3871    1.2485   -0.5912
H   -1.4125   -0.9850   -0.9209
H   -1.4762   -1.2161    0.8428
H   -2.7919    1.2026    0.2142
H   -5.0046   -3.5440   -0.3918
H   -5.7396   -2.3476    0.7021
H   -5.8341   -2.1181   -1.0605
H   -6.0023   -0.2598   -0.0169
H    2.3450    1.6672   -0.4378
H    2.2814    1.4360    1.3260
H    4.5498    1.5698   -2.3736
H    4.7393   -0.1323   -2.8585
H    3.1577    0.4631   -2.2998
H    6.4472   -0.9573    1.6458


