%nprocshared=4
%mem=100MW
%chk=ARCGXLSVLAOJQL-UHFFFAOYSA-N.chk
#b3lyp/6-31+G(d) opt freq

gas opt

0 1
O   -2.3320    1.6179   -0.9468
C   -1.4692    1.6270   -0.0921
O   -1.4245    2.6270    0.8092
C   -0.4716    0.5373   -0.0373
C   -0.8935   -0.8037    0.0419
C   -2.3380   -1.1261    0.0700
O   -3.1581   -0.2333    0.1404
O   -2.7427   -2.4096    0.0174
C    0.0499   -1.8257    0.0934
C    1.3982   -1.5271    0.0673
C    1.8234   -0.2000   -0.0111
C    3.2692    0.1119   -0.0386
O    3.6402    1.2663   -0.1069
O    4.1741   -0.8844    0.0121
C    0.8870    0.8324   -0.0695
H   -2.1002    3.3148    0.7357
H   -3.6960   -2.5705    0.0385
H   -0.2730   -2.8545    0.1542
H    2.1264   -2.3237    0.1082
H    5.1072   -0.6314   -0.0086
H    1.2165    1.8591   -0.1302


