%nprocshared=4
%mem=100MW
%chk=ARGDYOIRHYLIMT-UHFFFAOYSA-N.chk
#b3lyp/6-31+G(d) opt freq

gas opt

0 1
Cl   -2.2597   -1.4830   -0.9957
N   -1.7581   -0.0010   -0.3056
Cl   -2.2665    1.4788   -0.9953
S   -0.7854    0.0010    1.0346
O   -0.9909    1.2515    1.6776
O   -0.9900   -1.2479    1.6808
C    0.8831    0.0009    0.4683
C    1.5371    1.1980    0.2446
C    2.8461    1.1979   -0.1998
C    3.5012    0.0007   -0.4200
C    4.9280    0.0006   -0.9049
C    2.8475   -1.1964   -0.1950
C    1.5398   -1.1963    0.2531
H    1.0254    2.1334    0.4167
H    3.3569    2.1332   -0.3752
H    5.6027    0.0025   -0.0488
H    5.1072   -0.8904   -1.5067
H    5.1062    0.8896   -1.5099
H    3.3594   -2.1317   -0.3667
H    1.0291   -2.1315    0.4288


