%nprocshared=4
%mem=100MW
%chk=ATROHALUCMTWTB-UHFFFAOYSA-N.chk
#b3lyp/6-31+G(d) opt freq

gas opt

0 1
S   -1.9140   -0.5630    1.8448
P   -1.9462    0.0196    0.0750
O   -0.6702    0.9610   -0.2035
N    0.5750    0.3192    0.0025
C    1.6847    0.9737   -0.1894
C    1.6453    2.3423   -0.6087
N    1.6141    3.4281   -0.9413
C    2.9881    0.3018    0.0262
C    4.1777    0.9999   -0.1784
C    5.3882    0.3692    0.0244
C    5.4230   -0.9531    0.4295
C    4.2461   -1.6510    0.6336
C    3.0295   -1.0292    0.4400
O   -1.8992   -1.2532   -0.9099
C   -1.0054   -2.3519   -0.7197
C   -1.2220   -3.3835   -1.8286
O   -3.2971    0.8541   -0.1908
C   -4.5821    0.4182    0.2572
C   -5.6416    1.4399   -0.1605
H    4.1518    2.0320   -0.4953
H    6.3102    0.9089   -0.1338
H    6.3728   -1.4427    0.5866
H    4.2795   -2.6833    0.9495
H    2.1114   -1.5750    0.5997
H    0.0234   -1.9933   -0.7530
H   -1.1980   -2.8135    0.2488
H   -1.0294   -2.9218   -2.7970
H   -0.5403   -4.2215   -1.6835
H   -2.2508   -3.7421   -1.7953
H   -4.8139   -0.5488   -0.1894
H   -4.5758    0.3246    1.3432
H   -5.4098    2.4069    0.2861
H   -5.6479    1.5335   -1.2465
H   -6.6217    1.1074    0.1813


