%nprocshared=4
%mem=100MW
%chk=AUKRYONWZHRJRE-UHFFFAOYSA-N.chk
#b3lyp/6-31+G(d) opt freq

gas opt

0 1
O   -0.0000    2.5624    0.0221
C   -0.0000    1.2059    0.0125
C    1.2086    0.5003    0.0079
C    1.2057   -0.9654   -0.0020
C    0.0000   -1.6654   -0.0069
C   -1.2057   -0.9654   -0.0023
C   -1.2086    0.5003    0.0129
C   -2.4457    1.1763    0.0172
C   -3.6003    0.4612    0.0072
C   -3.5985   -0.9336   -0.0069
C   -2.4426   -1.6457   -0.0071
C    2.4426   -1.6457   -0.0069
C    3.5985   -0.9337   -0.0024
C    3.6003    0.4612    0.0070
C    2.4457    1.1763    0.0122
H    0.0003    2.9620   -0.8584
H    0.0000   -2.7454   -0.0146
H   -2.4751    2.2558    0.0288
H   -4.5442    0.9861    0.0105
H   -4.5411   -1.4608   -0.0142
H   -2.4691   -2.7253   -0.0181
H    2.4692   -2.7253   -0.0139
H    4.5411   -1.4609   -0.0058
H    4.5442    0.9861    0.0104
H    2.4751    2.2559    0.0187


