%nprocshared=4
%mem=100MW
%chk=AUNGANRZJHBGPY-UHFFFAOYSA-N.chk
#b3lyp/6-31+G(d) opt freq

gas opt

0 1
O   -0.4734   -4.6630    0.4409
C   -1.1045   -3.6422    0.2302
N   -0.5253   -2.4796    0.5195
C   -1.1455   -1.3288    0.3187
N   -0.5670   -0.1300    0.6098
C    0.7873   -0.0667    1.1648
C    1.8028    0.0168    0.0234
O    1.6258    1.2465   -0.6826
C    3.2202   -0.0428    0.5965
O    3.3972   -1.2725    1.3026
C    4.2357    0.0407   -0.5448
O    4.0587    1.2704   -1.2509
C    5.6530   -0.0189    0.0283
O    6.5985   -0.0583   -1.0425
C   -1.2851    1.0223    0.3696
C   -2.5909    0.9508   -0.1660
N   -3.1551   -0.2305   -0.4500
C   -2.5082   -1.3480   -0.2383
C   -3.0990   -2.6711   -0.5391
O   -4.2191   -2.7751   -1.0001
N   -2.3371   -3.7598   -0.2836
H   -2.6927   -4.6431   -0.4688
C   -3.3042    2.1428   -0.4018
C   -2.7331    3.3449   -0.1136
C   -3.5024    4.6154   -0.3686
C   -1.4476    3.4133    0.4141
C   -0.8388    4.7564    0.7248
C   -0.7262    2.2655    0.6548
H    0.8795    0.8154    1.7984
H    0.9793   -0.9613    1.7572
H    1.6515   -0.8193   -0.6594
H    1.7458    2.0349   -0.1356
H    3.3714    0.7932    1.2794
H    3.2772   -2.0609    0.7556
H    4.0844   -0.7953   -1.2276
H    4.1787    2.0588   -0.7039
H    5.8346    0.8641    0.6410
H    5.7600   -0.9143    0.6406
H    7.5201   -0.0970   -0.7522
H   -4.3029    2.1031   -0.8112
H   -4.0754    4.8779    0.5206
H   -2.8063    5.4207   -0.6031
H   -4.1818    4.4665   -1.2079
H   -1.0799    5.0362    1.7503
H    0.2435    4.7005    0.6083
H   -1.2396    5.5041    0.0403
H    0.2710    2.3292    1.0647


