%nprocshared=4
%mem=100MW
%chk=AUZONCFQVSMFAP-UHFFFAOYSA-N.chk
#b3lyp/6-31+G(d) opt freq

gas opt

0 1
S    0.8812   -0.5333    1.4024
S   -0.8812    0.5333    1.4024
C   -1.7253   -0.2872    0.1593
S   -0.9883   -1.6023   -0.6520
N   -2.9700    0.1022   -0.1805
C   -3.6924   -0.5999   -1.2442
C   -4.4945   -1.7542   -0.6400
C   -3.6007    1.2276    0.5137
C   -3.2695    2.5292   -0.2191
C    1.7253    0.2872    0.1593
S    0.9883    1.6023   -0.6520
N    2.9700   -0.1022   -0.1805
C    3.6007   -1.2276    0.5137
C    3.2695   -2.5292   -0.2191
C    3.6924    0.5999   -1.2442
C    4.4945    1.7542   -0.6400
H   -4.3711    0.0932   -1.7413
H   -2.9796   -0.9931   -1.9691
H   -3.8158   -2.4473   -0.1430
H   -5.2073   -1.3609    0.0849
H   -5.0320   -2.2766   -1.4314
H   -4.6811    1.0848    0.5304
H   -3.2253    1.2804    1.5357
H   -2.1890    2.6720   -0.2358
H   -3.6448    2.4764   -1.2411
H   -3.7387    3.3665    0.2975
H    4.6811   -1.0848    0.5304
H    3.2253   -1.2804    1.5357
H    3.7387   -3.3665    0.2975
H    2.1890   -2.6720   -0.2358
H    3.6448   -2.4764   -1.2411
H    4.3711   -0.0932   -1.7413
H    2.9796    0.9931   -1.9691
H    3.8158    2.4473   -0.1430
H    5.2073    1.3609    0.0849
H    5.0320    2.2766   -1.4314


