%nprocshared=4
%mem=100MW
%chk=AVQQQNCBBIEMEU-UHFFFAOYSA-N.chk
#b3lyp/6-31+G(d) opt freq

gas opt

0 1
O    0.0004   -1.7588   -0.0175
C    0.0001   -0.5430   -0.0034
N    1.1671    0.1311    0.0080
C    2.4361   -0.6009   -0.0083
C    1.1668    1.5958    0.0366
N   -1.1672    0.1307   -0.0046
C   -2.4355   -0.6015    0.0359
C   -1.1678    1.5951   -0.0465
H    2.7491   -0.7623   -1.0398
H    3.1964   -0.0217    0.5157
H    2.3068   -1.5632    0.4870
H    0.7543    1.9406    0.9848
H    2.1880    1.9616   -0.0698
H    0.5577    1.9751   -0.7839
H   -2.4792   -1.2024    0.9442
H   -3.2642    0.1065    0.0284
H   -2.5067   -1.2534   -0.8348
H   -0.6866    1.9325   -0.9645
H   -2.1950    1.9589   -0.0199
H   -0.6224    1.9834    0.8136


