%nprocshared=4
%mem=100MW
%chk=AVZVLGDSSQKRGL-UHFFFAOYSA-N.chk
#b3lyp/6-31+G(d) opt freq

gas opt

0 1
O   -1.2451   -1.7317   -0.2023
C   -1.5858   -0.5700   -0.2736
C   -0.5482    0.5226   -0.2475
O    0.7734   -0.0677   -0.1327
C    1.8204    0.7791   -0.0959
O    1.6344    1.9779   -0.1580
C    3.1948    0.2499    0.0201
C    4.2822    1.1248    0.0585
C    5.5629    0.6239    0.1673
C    5.7711   -0.7422    0.2379
C    4.6981   -1.6149    0.2000
C    3.4117   -1.1272    0.0976
N   -2.8921   -0.2563   -0.3816
C   -3.9229   -1.3058   -0.4151
C   -4.9996   -0.9594    0.6196
O   -5.4496    0.3797    0.4003
C   -4.4352    1.3730    0.5684
C   -3.3301    1.1462   -0.4633
H   -0.6082    1.1027   -1.1684
H   -0.7297    1.1758    0.6059
H    4.1211    2.1913    0.0028
H    6.4049    1.2995    0.1972
H    6.7759   -1.1291    0.3227
H    4.8677   -2.6800    0.2548
H    2.5750   -1.8095    0.0680
H   -4.3693   -1.3504   -1.4085
H   -3.4746   -2.2687   -0.1701
H   -5.8389   -1.6471    0.5160
H   -4.5810   -1.0431    1.6226
H   -4.8685    2.3633    0.4280
H   -4.0146    1.2977    1.5712
H   -2.4898    1.8077   -0.2526
H   -3.7145    1.3473   -1.4632


