%nprocshared=4
%mem=100MW
%chk=AWMVMTVKBNGEAK-UHFFFAOYSA-N.chk
#b3lyp/6-31+G(d) opt freq

gas opt

0 1
C   -0.1275    0.1922   -0.2362
C   -1.5998    0.4174   -0.4653
O   -2.4893   -0.6683   -0.1968
C   -2.5226    0.3971    0.7549
C    0.7314    1.2718   -0.1480
C    2.0819    1.0652    0.0621
C    2.5736   -0.2210    0.1845
C    1.7146   -1.3005    0.0973
C    0.3634   -1.0938   -0.1085
H   -1.8535    1.0913   -1.2837
H   -2.0702    0.2207    1.7308
H   -3.3893    1.0580    0.7474
H    0.3473    2.2766   -0.2437
H    2.7530    1.9086    0.1303
H    3.6289   -0.3824    0.3480
H    2.0988   -2.3054    0.1926
H   -0.3078   -1.9372   -0.1766


