%nprocshared=4
%mem=100MW
%chk=AXGUBXVWZBFQGA-UHFFFAOYSA-N.chk
#b3lyp/6-31+G(d) opt freq

gas opt

0 1
Cl   -5.0193    2.0142   -0.9823
C   -3.5728    1.3073   -0.3330
C   -3.2765    1.4486    1.0110
C   -2.1247    0.8856    1.5274
C   -1.2685    0.1818    0.7011
C   -0.0126   -0.4314    1.2647
O   -0.0142   -0.2978    2.6874
C    0.0419   -1.8920    0.8974
O    0.0758   -2.7322    1.7650
O    0.0526   -2.2594   -0.3936
C    0.1059   -3.6832   -0.6733
C   -0.6082   -3.9703   -1.9956
C    1.5661   -4.1287   -0.7750
C    1.1906    0.2750    0.6951
C    1.9957    1.0409    1.5175
C    3.0990    1.6893    0.9957
C    3.3980    1.5714   -0.3500
Cl    4.7840    2.3852   -1.0061
C    2.5922    0.8044   -1.1725
C    1.4921    0.1522   -0.6484
C   -1.5643    0.0399   -0.6418
C   -2.7187    0.5976   -1.1582
H   -3.9449    1.9990    1.6565
H   -1.8933    0.9958    2.5765
H   -0.0481    0.6179    2.9964
H   -0.3856   -4.2302    0.1313
H   -0.1167   -3.4233   -2.8002
H   -0.5682   -5.0391   -2.2056
H   -1.6485   -3.6529   -1.9231
H    2.0748   -3.9242    0.1670
H    1.6061   -5.1976   -0.9850
H    2.0576   -3.5817   -1.5796
H    1.7622    1.1328    2.5680
H    3.7275    2.2882    1.6381
H    2.8251    0.7120   -2.2230
H    0.8630   -0.4466   -1.2904
H   -0.8952   -0.5104   -1.2868
H   -2.9497    0.4866   -2.2074


