%nprocshared=4
%mem=100MW
%chk=AYFVYJQAPQTCCC-UHFFFAOYSA-N.chk
#b3lyp/6-31+G(d) opt freq

gas opt

0 1
O    1.9602   -0.6573    0.6937
C    1.2830    0.0145   -0.0480
O    1.7490    1.1878   -0.5041
C   -0.0822   -0.4678   -0.4659
N   -0.1724   -1.9197   -0.2612
C   -1.1504    0.2332    0.3757
O   -1.0627    1.6455    0.1766
C   -2.5365   -0.2565   -0.0486
H    2.6316    1.4532   -0.2116
H   -0.2416   -0.2389   -1.5196
H   -0.0280   -2.1578    0.7086
H   -1.0552   -2.2776   -0.5939
H   -0.9910    0.0042    1.4293
H   -1.7119    2.1549    0.6807
H   -2.6959   -0.0275   -1.1023
H   -2.6034   -1.3338    0.1033
H   -3.2975    0.2429    0.5509


