%nprocshared=4
%mem=100MW
%chk=BACHBFVBHLGWSL-UHFFFAOYSA-N.chk
#b3lyp/6-31+G(d) opt freq

gas opt

0 1
Cl   -4.3087   -2.5880    0.5333
C   -3.8821   -0.9287    0.2538
C   -2.5495   -0.5706    0.0965
O   -1.5778   -1.5189    0.1608
C   -0.2979   -1.1398   -0.0976
C    0.4198   -0.4277    0.8523
C    1.7200   -0.0426    0.5897
C    2.3079   -0.3675   -0.6239
O    3.5879    0.0117   -0.8824
C    4.3127    0.6210    0.1879
C    5.7670    0.2379    0.0919
O    6.1607   -0.4078   -0.8504
O    6.6250    0.6139    1.0533
C    8.0105    0.2095    0.8953
C    4.1787    2.1422    0.0935
C    1.5903   -1.0795   -1.5737
C    0.2922   -1.4700   -1.3089
C   -2.2117    0.7559   -0.1266
C   -3.2010    1.7184   -0.1921
C   -4.5280    1.3603   -0.0352
Cl   -5.7684    2.5719   -0.1185
C   -4.8686    0.0365    0.1819
H   -0.0382   -0.1741    1.7969
H    2.2788    0.5118    1.3291
H    3.9090    0.2792    1.1410
H    8.4073    0.6259   -0.0306
H    8.5948    0.5773    1.7387
H    8.0697   -0.8783    0.8591
H    3.1269    2.4194    0.1629
H    4.7316    2.6070    0.9098
H    4.5824    2.4840   -0.8596
H    2.0481   -1.3320   -2.5188
H   -0.2665   -2.0244   -2.0484
H   -1.1760    1.0364   -0.2488
H   -2.9379    2.7514   -0.3655
H   -5.9052   -0.2410    0.3040


