%nprocshared=4
%mem=100MW
%chk=BAPJBEWLBFYGME-UHFFFAOYSA-N.chk
#b3lyp/6-31+G(d) opt freq

gas opt

0 1
O    0.0074   -1.2169    0.0014
C   -0.0456   -0.0028    0.0030
O    1.0913    0.7215    0.0011
C    2.3423   -0.0155   -0.0029
C   -1.3490    0.6758    0.0009
C   -2.4715   -0.0392   -0.0028
H    3.1770    0.6855   -0.0041
H    2.3968   -0.6437    0.8862
H    2.3924   -0.6416   -0.8937
H   -1.3961    1.7548    0.0022
H   -3.4294    0.4595   -0.0043
H   -2.4244   -1.1182   -0.0042


