%nprocshared=4
%mem=100MW
%chk=BBXXLROWFHWFQY-UHFFFAOYSA-N.chk
#b3lyp/6-31+G(d) opt freq

gas opt

0 1
O    0.8881   -2.3574   -0.3963
C    0.1875   -1.3605   -0.3331
C    0.7352   -0.0845   -0.5547
C    2.1991    0.0758   -0.8745
C    3.0032    0.1228    0.4263
C    4.4895    0.2855    0.1016
C    5.2935    0.3326    1.4024
C   -0.0810    1.0063   -0.4756
C    0.4810    2.3849   -0.7092
N   -1.3728    0.8545   -0.1929
C   -1.8937   -0.3383    0.0160
N   -3.2276   -0.4488    0.3035
C   -4.0631    0.7524    0.3768
C   -5.5019    0.3532    0.7105
N   -1.1298   -1.4618   -0.0547
H   -1.5287   -2.3322    0.1014
H    2.5336   -0.7680   -1.4781
H    2.3506    1.0019   -1.4290
H    2.6687    0.9666    1.0299
H    2.8517   -0.8033    0.9808
H    4.8240   -0.5582   -0.5020
H    4.6410    1.2116   -0.4529
H    5.1420   -0.5936    1.9569
H    6.3524    0.4485    1.1711
H    4.9590    1.1763    2.0060
H    0.4067    2.6330   -1.7680
H   -0.0842    3.1114   -0.1254
H    1.5269    2.4076   -0.4033
H   -3.6195   -1.3224    0.4587
H   -3.6802    1.4144    1.1535
H   -4.0425    1.2684   -0.5831
H   -5.8847   -0.3088   -0.0662
H   -5.5225   -0.1628    1.6704
H   -6.1235    1.2469    0.7650


