%nprocshared=4
%mem=100MW
%chk=BCCOBQSFUDVTJQ-UHFFFAOYSA-N.chk
#b3lyp/6-31+G(d) opt freq

gas opt

0 1
F    0.6329   -2.0627    0.6911
C    0.3113   -1.0118   -0.1745
F    0.4212   -1.3661   -1.5235
C   -1.0130   -0.3112    0.1724
F   -2.0612   -0.6321   -0.6968
F   -1.3708   -0.4248    1.5201
C   -0.3114    1.0133   -0.1712
F   -0.4191    1.3713   -1.5193
F   -0.6364    2.0613    0.6968
C    1.0142    0.3107    0.1743
F    1.3696    0.4166    1.5233
F    2.0632    0.6357   -0.6924


