%nprocshared=4
%mem=100MW
%chk=BCMCBBGGLRIHSE-UHFFFAOYSA-N.chk
#b3lyp/6-31+G(d) opt freq

gas opt

0 1
O    1.5523   -1.0463   -0.0001
C    0.2505   -0.6847    0.0001
C    0.2334    0.7187    0.0002
N    1.5330    1.1213    0.0001
C    2.2969    0.0706   -0.0001
C   -0.9874    1.3947    0.0000
C   -2.1643    0.6793   -0.0003
C   -2.1431   -0.7073    0.0000
C   -0.9437   -1.3888    0.0002
H    3.3767    0.0925    0.0001
H   -1.0093    2.4745    0.0005
H   -3.1096    1.2015   -0.0004
H   -3.0724   -1.2577    0.0002
H   -0.9350   -2.4687    0.0000


