%nprocshared=4
%mem=100MW
%chk=BDERNNFJNOPAEC-UHFFFAOYSA-N.chk
#b3lyp/6-31+G(d) opt freq

gas opt

0 1
O    1.7922   -0.1691   -0.0000
C    0.5267    0.4947    0.0000
C   -0.5950   -0.5458    0.0000
C   -1.9499    0.1649   -0.0000
H    2.5508    0.4305    0.0000
H    0.4436    1.1185    0.8900
H    0.4436    1.1185   -0.8900
H   -0.5119   -1.1696   -0.8900
H   -0.5119   -1.1696    0.8900
H   -2.0330    0.7887    0.8900
H   -2.0330    0.7887   -0.8900
H   -2.7490   -0.5764   -0.0000


