%nprocshared=4
%mem=100MW
%chk=BGHCVCJVXZWKCC-UHFFFAOYSA-N.chk
#b3lyp/6-31+G(d) opt freq

gas opt

0 1
C    0.6300   -0.4340    0.0000
C   -0.6300    0.4340    0.0000
C   -1.8683   -0.4645    0.0000
C   -3.1282    0.4036   -0.0000
C   -4.3666   -0.4949    0.0000
C   -5.6265    0.3732   -0.0000
C   -6.8649   -0.5253    0.0000
C   -8.1248    0.3427   -0.0000
C    1.8683    0.4645    0.0000
C    3.1282   -0.4036   -0.0000
C    4.3666    0.4949    0.0000
C    5.6265   -0.3732   -0.0000
C    6.8649    0.5253    0.0000
C    8.1248   -0.3427   -0.0000
H    0.6376   -1.0633    0.8900
H    0.6376   -1.0633   -0.8900
H   -0.6376    1.0633    0.8900
H   -0.6376    1.0633   -0.8900
H   -1.8607   -1.0937   -0.8900
H   -1.8607   -1.0937    0.8900
H   -3.1359    1.0329    0.8900
H   -3.1359    1.0329   -0.8900
H   -4.3590   -1.1242   -0.8900
H   -4.3590   -1.1242    0.8900
H   -5.6342    1.0024    0.8900
H   -5.6342    1.0024   -0.8900
H   -6.8573   -1.1546   -0.8900
H   -6.8573   -1.1546    0.8900
H   -9.0071   -0.2974    0.0000
H   -8.1325    0.9720    0.8900
H   -8.1325    0.9720   -0.8900
H    1.8607    1.0937   -0.8900
H    1.8607    1.0937    0.8900
H    3.1359   -1.0329    0.8900
H    3.1359   -1.0329   -0.8900
H    4.3590    1.1242   -0.8900
H    4.3590    1.1242    0.8900
H    5.6342   -1.0024    0.8900
H    5.6342   -1.0024   -0.8900
H    6.8573    1.1546   -0.8900
H    6.8573    1.1546    0.8900
H    9.0071    0.2974    0.0000
H    8.1325   -0.9720    0.8900
H    8.1325   -0.9720   -0.8900


