%nprocshared=4
%mem=100MW
%chk=BGNCCUHEGHNNAP-UHFFFAOYSA-N.chk
#b3lyp/6-31+G(d) opt freq

gas opt

0 1
S   -3.2731    0.0287   -0.1075
O   -3.7163   -1.1954   -0.6772
O   -3.6073    1.3015   -0.6436
N   -3.7978    0.0305    1.4632
C   -1.5132   -0.0487   -0.0694
S   -0.4548    1.3494   -0.0279
C    0.9474    0.3855   -0.0093
S    2.6183    0.9738    0.0344
O    2.8999    1.3509   -1.3064
O    2.6342    1.9275    1.0877
C    3.5549   -0.5167    0.4968
C    3.0716   -1.6847   -0.3718
C    1.6444   -2.0218   -0.0239
O    1.3375   -3.1605    0.2623
C    0.6226   -0.9563   -0.0336
C   -0.8095   -1.1699   -0.0625
H   -4.3811   -0.6766    1.7805
H   -3.5217    0.7386    2.0659
H    4.6182   -0.3488    0.3257
H    3.3821   -0.7463    1.5482
H    3.1317   -1.4036   -1.4232
H    3.7034   -2.5548   -0.1933
H   -1.2606   -2.1511   -0.0805


