%nprocshared=4
%mem=100MW
%chk=BKIMMITUMNQMOS-UHFFFAOYSA-N.chk
#b3lyp/6-31+G(d) opt freq

gas opt

0 1
C   -0.0000   -0.3864   -0.0000
C   -1.2492    0.4969   -0.0000
C   -2.4985   -0.3864    0.0000
C   -3.7477    0.4969   -0.0000
C   -4.9970   -0.3864    0.0000
C    1.2492    0.4969    0.0000
C    2.4985   -0.3864   -0.0000
C    3.7477    0.4969    0.0000
C    4.9970   -0.3864   -0.0000
H   -0.0000   -1.0157    0.8900
H    0.0000   -1.0157   -0.8900
H   -1.2492    1.1262    0.8900
H   -1.2492    1.1262   -0.8900
H   -2.4985   -1.0157   -0.8900
H   -2.4985   -1.0157    0.8900
H   -3.7477    1.1262    0.8900
H   -3.7477    1.1262   -0.8900
H   -5.8869    0.2429   -0.0000
H   -4.9970   -1.0157   -0.8900
H   -4.9970   -1.0157    0.8900
H    1.2492    1.1262   -0.8900
H    1.2492    1.1262    0.8900
H    2.4985   -1.0157    0.8900
H    2.4985   -1.0157   -0.8900
H    3.7477    1.1262   -0.8900
H    3.7477    1.1262    0.8900
H    5.8869    0.2429    0.0000
H    4.9970   -1.0157    0.8900
H    4.9970   -1.0157   -0.8900


