%nprocshared=4
%mem=100MW
%chk=BRLQWZUYTZBJKN-UHFFFAOYSA-N.chk
#b3lyp/6-31+G(d) opt freq

gas opt

0 1
Cl   -1.8915    0.1192   -0.0661
C   -0.3140   -0.6219    0.3959
C    0.8123    0.0365   -0.4034
O    1.8032    0.7682    0.3210
C    2.2339   -0.4911   -0.1994
H   -0.1398   -0.4709    1.4613
H   -0.3370   -1.6899    0.1793
H    0.5405    0.3954   -1.3961
H    2.3753   -1.3104    0.5055
H    2.9066   -0.4830   -1.0570


