%nprocshared=4
%mem=100MW
%chk=BRUZQRBVNRKLJG-UHFFFAOYSA-N.chk
#b3lyp/6-31+G(d) opt freq

gas opt

0 1
O   -1.9774   -1.1672    0.4453
C   -1.8075   -0.0502   -0.0018
O   -0.5620    0.3859   -0.2684
C    0.5300   -0.5318    0.0030
C    1.8585    0.1349   -0.3595
C    2.0970    1.3319    0.5631
C    2.9974   -0.8730   -0.1920
N   -2.8664    0.7500   -0.2362
H    0.5312   -0.7923    1.0614
H    0.4022   -1.4351   -0.5934
H    1.8238    0.4752   -1.3945
H    3.0434    1.8069    0.3048
H    1.2856    2.0500    0.4437
H    2.1317    0.9917    1.5980
H    2.8275   -1.7257   -0.8493
H    3.9439   -0.3980   -0.4503
H    3.0321   -1.2132    0.8429
H   -3.7640    0.4343   -0.0479
H   -2.7308    1.6417   -0.5932


