%nprocshared=4
%mem=100MW
%chk=BTANRVKWQNVYAZ-UHFFFAOYSA-N.chk
#b3lyp/6-31+G(d) opt freq

gas opt

0 1
O    0.5364    1.3403   -0.0893
C    0.4463   -0.0139    0.3581
C   -0.7408   -0.6981   -0.3229
C   -2.0419   -0.0340    0.1321
C    1.7359   -0.7558    0.0012
H    0.6634    1.4316   -1.0435
H    0.3044   -0.0309    1.4387
H   -0.6433   -0.6031   -1.4044
H   -0.7570   -1.7534   -0.0508
H   -2.1394   -0.1289    1.2136
H   -2.0257    1.0213   -0.1400
H   -2.8876   -0.5214   -0.3531
H    2.5816   -0.2684    0.4864
H    1.6672   -1.7887    0.3424
H    1.8777   -0.7388   -1.0794


