%nprocshared=4
%mem=100MW
%chk=BWXSXZAIQQSFPW-UHFFFAOYSA-N.chk
#b3lyp/6-31+G(d) opt freq

gas opt

0 1
O    4.1944   -1.0175    0.0932
N    3.6971    0.0943    0.0935
O    4.4112    1.0810    0.0935
C    2.2247    0.2464    0.0878
C    1.4188   -0.8736    0.0821
C    0.0305   -0.7291    0.0767
C   -1.0735   -1.7061    0.0701
O   -0.9336   -2.9127    0.0685
O   -2.2565   -1.0695    0.0666
C   -2.0224    0.3654    0.0706
C   -2.6255    0.9992   -1.1846
C   -1.9651    0.3984   -2.4270
C   -2.6370    0.9941    1.3228
C   -4.1438    0.7291    1.3394
C   -0.5262    0.5531    0.0771
C    0.2863    1.6623    0.0822
C    1.6633    1.5109    0.0939
H    1.8609   -1.8590    0.0815
H   -3.6973    0.8026   -1.2118
H   -2.4540    2.0755   -1.1664
H   -2.0572   -0.6873   -2.3983
H   -2.4570    0.7813   -3.3211
H   -0.9105    0.6731   -2.4467
H   -2.1812    0.5557    2.2105
H   -2.4573    2.0692    1.3152
H   -4.6112    1.2358    0.4951
H   -4.3250   -0.3432    1.2653
H   -4.5687    1.1059    2.2698
H   -0.1487    2.6509    0.0825
H    2.3007    2.3828    0.0978


