%nprocshared=4
%mem=100MW
%chk=BXNJHAXVSOCGBA-UHFFFAOYSA-N.chk
#b3lyp/6-31+G(d) opt freq

gas opt

0 1
O   -4.1625   -0.7587    0.0008
C   -5.1965    0.2276    0.0021
C   -2.8805   -0.3084    0.0007
C   -1.8344   -1.2133   -0.0005
C   -0.5206   -0.7580   -0.0007
N    0.6927   -1.4227   -0.0006
H    0.7966   -2.3871   -0.0012
C    1.7358   -0.5155   -0.0000
C    3.1179   -0.6550    0.0003
C    3.7300   -2.0320    0.0000
N    3.8981    0.4068    0.0004
C    3.4195    1.6383    0.0006
C    2.0605    1.8725    0.0008
C    1.1925    0.7814    0.0002
C   -0.2700    0.6241   -0.0002
C   -1.3328    1.5258   -0.0002
C   -2.6284    1.0600   -0.0042
H   -5.1052    0.8509   -0.8875
H   -6.1688   -0.2652    0.0021
H   -5.1044    0.8495    0.8925
H   -2.0381   -2.2739   -0.0009
H    3.8779   -2.3637   -1.0277
H    4.6907   -2.0027    0.5141
H    3.0642   -2.7257    0.5134
H    4.1032    2.4743    0.0011
H    1.6759    2.8817    0.0013
H   -1.1403    2.5885    0.0002
H   -3.4517    1.7590   -0.0042


