%nprocshared=4
%mem=100MW
%chk=BYEVBITUADOIGY-UHFFFAOYSA-N.chk
#b3lyp/6-31+G(d) opt freq

gas opt

0 1
O    2.7912   -1.3372    0.0034
C    2.8665   -0.1313    0.0051
O    4.0685    0.4661    0.0014
C    5.2346   -0.3991   -0.0046
C    6.5036    0.4555   -0.0082
C    1.6109    0.7020    0.0051
C    0.3882   -0.2178    0.0028
C   -0.8865    0.6283    0.0028
C   -2.1091   -0.2916    0.0005
C   -3.3839    0.5545    0.0005
C   -4.6065   -0.3653   -0.0018
C   -5.8813    0.4808   -0.0018
C   -7.1039   -0.4391   -0.0041
H    5.2237   -1.0297    0.8844
H    5.2167   -1.0267   -0.8956
H    6.5145    1.0861   -0.8972
H    6.5215    1.0832    0.8828
H    7.3790   -0.1939   -0.0127
H    1.5915    1.3299    0.8959
H    1.5931    1.3323   -0.8840
H    0.4076   -0.8456   -0.8880
H    0.4060   -0.8480    0.8919
H   -0.9059    1.2561    0.8937
H   -0.9043    1.2585   -0.8863
H   -2.0898   -0.9194   -0.8903
H   -2.0913   -0.9218    0.8897
H   -3.4033    1.1824    0.8914
H   -3.4017    1.1848   -0.8886
H   -4.5872   -0.9931   -0.8926
H   -4.5887   -0.9956    0.8874
H   -5.9007    1.1086    0.8891
H   -5.8991    1.1110   -0.8909
H   -7.0846   -1.0669   -0.8949
H   -7.0861   -1.0693    0.8851
H   -8.0121    0.1637   -0.0041


