%nprocshared=4
%mem=100MW
%chk=BZHMBWZPUJHVEE-UHFFFAOYSA-N.chk
#b3lyp/6-31+G(d) opt freq

gas opt

0 1
C    1.2299    0.1497   -0.2191
C   -0.0000   -0.7337    0.0000
C   -1.2299    0.1497    0.2191
C   -1.5227    0.9419   -1.0566
C   -2.4346   -0.7292    0.5615
C    1.5227    0.9419    1.0566
C    2.4346   -0.7292   -0.5615
H    1.0392    0.8407   -1.0402
H   -0.1561   -1.3630   -0.8762
H    0.1561   -1.3630    0.8762
H   -1.0392    0.8407    1.0402
H   -1.7133    0.2508   -1.8777
H   -2.3988    1.5712   -0.9005
H   -0.6644    1.5680   -1.3005
H   -2.2260   -1.2936    1.4704
H   -3.3107   -0.0999    0.7176
H   -2.6252   -1.4203   -0.2596
H    2.3988    1.5712    0.9005
H    0.6644    1.5680    1.3005
H    1.7133    0.2508    1.8777
H    2.2260   -1.2936   -1.4704
H    3.3107   -0.0999   -0.7176
H    2.6252   -1.4203    0.2596


