%nprocshared=4
%mem=100MW
%chk=BZKPWHYZMXOIDC-UHFFFAOYSA-N.chk
#b3lyp/6-31+G(d) opt freq

gas opt

0 1
S   -2.7417   -0.0155   -0.0004
O   -3.1346    0.5357   -1.2498
O   -3.1347    0.5341    1.2497
N   -3.2560   -1.5897   -0.0014
C   -0.9799   -0.0424   -0.0004
S    0.0821    1.3660    0.0005
C    1.4382    0.3193   -0.0001
N    2.7704    0.7186    0.0001
C    3.7510   -0.2060   -0.0004
O    3.4716   -1.3863   -0.0012
C    5.1946    0.2266   -0.0002
N    1.0160   -0.9091   -0.0009
N   -0.2320   -1.0999    0.0046
H   -2.6081   -2.3116   -0.0019
H   -4.2051   -1.7898   -0.0016
H    2.9938    1.6625    0.0007
H    5.5426    0.3303    1.0276
H    5.7981   -0.5213   -0.5145
H    5.2871    1.1838   -0.5134


