%nprocshared=4
%mem=100MW
%chk=CAQHPYSDQFDJAL-UHFFFAOYSA-N.chk
#b3lyp/6-31+G(d) opt freq

gas opt

0 1
O   -2.8439   -0.8872   -0.0010
C   -1.6260   -0.8705   -0.0013
C   -0.8968    0.4215   -0.0006
N   -1.5413    1.5564    0.0001
O   -2.9572    1.5665    0.0004
C    0.5819    0.3860   -0.0004
C    1.2337   -0.8639   -0.0008
C    2.6319   -0.9070   -0.0006
C    3.3534    0.2676    0.0000
C    2.7075    1.4938    0.0004
C    1.3274    1.5589    0.0007
C    0.4498   -2.0987   -0.0010
C   -0.8978   -2.0815    0.0038
H   -3.3442    2.4527    0.0009
H    3.1445   -1.8576   -0.0005
H    4.4328    0.2320    0.0006
H    3.2872    2.4050    0.0009
H    0.8298    2.5174    0.0006
H    0.9640   -3.0484   -0.0013
H   -1.4354   -3.0182    0.0034


