%nprocshared=4
%mem=100MW
%chk=CBFCDTFDPHXCNY-UHFFFAOYSA-N.chk
#b3lyp/6-31+G(d) opt freq

gas opt

0 1
C    0.6220   -0.4454   -0.0000
C   -0.6220    0.4454   -0.0000
C   -1.8765   -0.4305    0.0000
C   -3.1204    0.4603   -0.0000
C   -4.3749   -0.4155    0.0000
C   -5.6188    0.4753   -0.0000
C   -6.8733   -0.4006    0.0000
C   -8.1173    0.4902   -0.0000
C   -9.3718   -0.3857    0.0000
C  -10.6157    0.5051   -0.0000
C  -11.8702   -0.3707    0.0000
C    1.8765    0.4305    0.0000
C    3.1204   -0.4603   -0.0000
C    4.3749    0.4155    0.0000
C    5.6188   -0.4753   -0.0000
C    6.8733    0.4006    0.0000
C    8.1173   -0.4902   -0.0000
C    9.3718    0.3857    0.0000
C   10.6157   -0.5051   -0.0000
C   11.8702    0.3707    0.0000
H    0.6182   -1.0747    0.8900
H    0.6182   -1.0747   -0.8900
H   -0.6182    1.0747    0.8900
H   -0.6182    1.0747   -0.8900
H   -1.8802   -1.0598   -0.8900
H   -1.8802   -1.0598    0.8900
H   -3.1166    1.0896    0.8900
H   -3.1166    1.0896   -0.8900
H   -4.3787   -1.0448   -0.8900
H   -4.3787   -1.0448    0.8900
H   -5.6151    1.1046    0.8900
H   -5.6151    1.1046   -0.8900
H   -6.8771   -1.0299   -0.8900
H   -6.8771   -1.0299    0.8900
H   -8.1135    1.1195    0.8900
H   -8.1135    1.1195   -0.8900
H   -9.3755   -1.0150   -0.8900
H   -9.3755   -1.0150    0.8900
H  -10.6119    1.1344    0.8900
H  -10.6119    1.1344   -0.8900
H  -11.8740   -1.0000   -0.8900
H  -11.8740   -1.0000    0.8900
H  -12.7564    0.2639   -0.0000
H    1.8802    1.0598   -0.8900
H    1.8802    1.0598    0.8900
H    3.1166   -1.0896    0.8900
H    3.1166   -1.0896   -0.8900
H    4.3787    1.0448   -0.8900
H    4.3787    1.0448    0.8900
H    5.6151   -1.1046    0.8900
H    5.6151   -1.1046   -0.8900
H    6.8771    1.0299   -0.8900
H    6.8771    1.0299    0.8900
H    8.1135   -1.1195    0.8900
H    8.1135   -1.1195   -0.8900
H    9.3755    1.0150   -0.8900
H    9.3755    1.0150    0.8900
H   10.6119   -1.1344    0.8900
H   10.6119   -1.1344   -0.8900
H   11.8740    1.0000   -0.8900
H   11.8740    1.0000    0.8900
H   12.7564   -0.2639   -0.0000


