%nprocshared=4
%mem=100MW
%chk=CCGPUGMWYLICGL-UHFFFAOYSA-N.chk
#b3lyp/6-31+G(d) opt freq

gas opt

0 1
Cl    4.4495    1.4258   -0.0981
C    2.9931    0.4928    0.0512
C    3.0566   -0.8907    0.0747
Cl    4.5930   -1.6899   -0.0452
C    1.8977   -1.6365    0.1940
C    0.6737   -1.0031    0.2891
C    0.6066    0.3835    0.2654
N   -0.6328    1.0272    0.3621
C   -1.7249    0.4749   -0.2025
O   -1.6515   -0.6213   -0.7233
N   -2.8983    1.1378   -0.1899
C   -4.0854    0.5374   -0.8036
C   -4.8354   -0.2918    0.2408
C   -6.0751   -0.9188   -0.4002
C   -6.8252   -1.7480    0.6441
C   -2.9868    2.4586    0.4377
C    1.7714    1.1310    0.1522
H    1.9498   -2.7151    0.2125
H   -0.2307   -1.5862    0.3816
H   -0.7056    1.8707    0.8355
H   -4.7382    1.3255   -1.1790
H   -3.7814   -0.1065   -1.6289
H   -4.1826   -1.0798    0.6162
H   -5.1394    0.3521    1.0660
H   -6.7280   -0.1308   -0.7757
H   -5.7712   -1.5627   -1.2255
H   -6.1723   -2.5360    1.0196
H   -7.1291   -1.1041    1.4694
H   -7.7084   -2.1947    0.1875
H   -2.7688    3.2281   -0.3029
H   -3.9924    2.6074    0.8310
H   -2.2649    2.5231    1.2519
H    1.7218    2.2097    0.1335


