%nprocshared=4
%mem=100MW
%chk=CEOCDNVZRAIOQZ-UHFFFAOYSA-N.chk
#b3lyp/6-31+G(d) opt freq

gas opt

0 1
Cl   -0.0000   -2.6888    0.0021
C   -0.0000   -0.9528    0.0014
C    1.1986   -0.2604    0.0007
Cl    2.7023   -1.1280   -0.0001
C    1.1981    1.1240    0.0002
Cl    2.7012    1.9925   -0.0012
C    0.0000    1.8154    0.0005
C   -1.1981    1.1240    0.0016
Cl   -2.7012    1.9925    0.0019
C   -1.1986   -0.2604   -0.0042
Cl   -2.7023   -1.1280   -0.0027
H    0.0000    2.8954    0.0001


