%nprocshared=4
%mem=100MW
%chk=CGBCCZZJVKUAMX-UHFFFAOYSA-N.chk
#b3lyp/6-31+G(d) opt freq

gas opt

0 1
Cl   -4.0005   -2.9583    0.3422
C   -2.8655   -1.6517    0.2074
C   -1.5223   -1.8231    0.2975
C   -0.6867   -0.5730    0.1794
C   -1.0754    0.2140   -1.0760
C   -2.5666    0.4990   -1.1103
C   -3.2714   -0.2478   -0.0227
C   -4.2139    0.3084    0.7599
C   -4.5393    1.7285    0.6143
O   -5.4335    2.2324    1.2704
C   -3.7616    2.5350   -0.3424
C   -2.8597    1.9591   -1.1212
C   -3.0919   -0.0562   -2.4358
C   -0.2560    1.4901   -1.2159
C    1.2521    1.1787   -1.1970
C    1.5507    0.4472    0.0953
C    0.7873   -0.9060    0.0645
C    1.4058   -1.6348    1.2627
C    2.9152   -1.2911    1.1379
C    2.9975    0.0286    0.3305
O    3.6682   -0.1980   -0.9372
C    4.9163   -0.6896   -0.8870
O    5.4669   -0.8322    0.1790
C    5.6306   -1.0636   -2.1601
C    3.7236    1.0830    1.1256
O    3.7564    1.0145    2.3308
C    4.4087    2.2228    0.4167
C    1.0676    1.2827    1.2825
H   -1.0782   -2.7964    0.4452
H   -0.8429    0.0507    1.0597
H   -0.8394   -0.4075   -1.9398
H   -4.7301   -0.2920    1.4944
H   -3.9299    3.5997   -0.4093
H   -2.3010    2.5849   -1.8012
H   -2.9016   -1.1285   -2.4814
H   -4.1643    0.1257   -2.5064
H   -2.5841    0.4385   -3.2637
H   -0.5095    1.9774   -2.1573
H   -0.4937    2.1610   -0.3905
H    1.5104    0.5478   -2.0476
H    1.8222    2.1069   -1.2371
H    0.9862   -1.4374   -0.8662
H    0.9992   -1.2519    2.1987
H    1.2474   -2.7103    1.1835
H    3.3502   -1.1519    2.1275
H    3.4376   -2.0873    0.6076
H    4.9808   -0.8665   -3.0127
H    6.5414   -0.4720   -2.2530
H    5.8864   -2.1229   -2.1355
H    4.1948    2.1678   -0.6507
H    4.0418    3.1698    0.8125
H    5.4849    2.1551    0.5755
H    0.0111    1.5183    1.1550
H    1.2052    0.7176    2.2044
H    1.6425    2.2073    1.3339


