%nprocshared=4
%mem=100MW
%chk=CHMBIJAOCISYEW-UHFFFAOYSA-N.chk
#b3lyp/6-31+G(d) opt freq

gas opt

0 1
O   -2.1534    1.2320   -0.4681
C   -2.4992    0.1361   -0.0800
N   -1.5753   -0.7588    0.3224
C   -0.2113   -0.4600    0.2021
C    0.2330    0.8424    0.3870
C    1.5766    1.1370    0.2685
C    2.4839    0.1304   -0.0356
N    3.8455    0.4285   -0.1552
C    2.0394   -1.1724   -0.2204
C    0.6964   -1.4676   -0.0963
C   -3.9624   -0.2227   -0.0422
H   -1.8543   -1.6097    0.6954
H   -0.4726    1.6252    0.6231
H    1.9221    2.1501    0.4119
H    4.1559    1.3383   -0.0258
H    4.4791   -0.2746   -0.3676
H    2.7447   -1.9553   -0.4569
H    0.3506   -2.4806   -0.2400
H   -4.2517   -0.6693   -0.9935
H   -4.1410   -0.9354    0.7630
H   -4.5527    0.6770    0.1314


