%nprocshared=4
%mem=100MW
%chk=CHNUNORXWHYHNE-UHFFFAOYSA-N.chk
#b3lyp/6-31+G(d) opt freq

gas opt

0 1
Cl   -4.4400   -1.8169   -0.2854
C   -2.8133   -1.2361   -0.1116
C   -2.5612    0.1292   -0.1075
O   -3.5877    1.0107   -0.2395
C   -3.2725    2.3982   -0.1070
C   -2.7872    2.9416   -1.4524
C   -4.5214    3.1652    0.3322
C   -1.2627    0.5932    0.0318
C   -0.2167   -0.3086    0.1669
N    1.0971    0.1573    0.3083
C    1.5481    1.0265    1.2380
O    0.8876    1.5538    2.1136
O    2.8617    1.2006    1.0169
C    3.2289    0.4487   -0.0395
C    4.6222    0.3641   -0.6073
C    4.6296   -0.5943   -1.8000
C    5.0711    1.7529   -1.0663
C    5.5806   -0.1522    0.4678
N    2.1996   -0.1936   -0.4848
C   -0.4738   -1.6746    0.1622
Cl    0.8336   -2.8042    0.3311
C   -1.7705   -2.1338    0.0284
H   -2.4882    2.5229    0.6395
H   -1.8974    2.3952   -1.7653
H   -3.5715    2.8168   -2.1990
H   -2.5467    3.9999   -1.3514
H   -4.8672    2.7780    1.2907
H   -4.2810    4.2235    0.4332
H   -5.3057    3.0404   -0.4144
H   -1.0651    1.6550    0.0348
H    3.9468   -0.2265   -2.5659
H    5.6374   -0.6555   -2.2107
H    4.3098   -1.5837   -1.4730
H    5.0659    2.4356   -0.2167
H    6.0789    1.6916   -1.4771
H    4.3884    2.1207   -1.8323
H    5.2608   -1.1416    0.7948
H    6.5884   -0.2134    0.0571
H    5.5754    0.5305    1.3174
H   -1.9689   -3.1955    0.0249


