%nprocshared=4
%mem=100MW
%chk=CHNXZKVNWQUJIB-UHFFFAOYSA-N.chk
#b3lyp/6-31+G(d) opt freq

gas opt

0 1
O   -5.7476   -0.4025   -0.4892
C   -4.6985   -0.2485    0.1142
C   -3.9919    1.0434    0.0832
C   -2.6411    0.9830   -0.0566
C   -2.0193   -0.3630   -0.1458
C   -2.3953   -0.9037   -1.5264
C   -0.5020   -0.3527   -0.1873
C    0.0488    0.9029    0.4718
C    1.5431    0.8508    0.6454
C    2.1924   -0.3335   -0.0553
C    2.1363   -0.2352   -1.5818
C    3.6673   -0.0763    0.3385
O    3.9029   -0.4839    1.6809
C    4.5613   -0.7751   -0.5934
C    5.2761   -1.3338   -1.3386
C    3.8121    1.4446    0.1921
C    2.3854    2.0113    0.1070
C    1.6038   -1.6420    0.4266
C    0.0810   -1.6098    0.4357
C   -0.4210    2.1362   -0.3114
C   -1.9271    2.3028   -0.1089
C   -2.5705   -1.3557    0.8511
C   -4.0894   -1.3769    0.9048
H   -4.5129    1.9960    0.1684
H   -2.0071   -0.2365   -2.2960
H   -1.9662   -1.8972   -1.6567
H   -3.4804   -0.9627   -1.6103
H   -0.2684   -0.3342   -1.2486
H   -0.4087    0.9715    1.4765
H    1.7566    0.7703    1.7388
H    2.7778    0.5797   -1.9173
H    2.4806   -1.1724   -2.0191
H    1.1104   -0.0429   -1.8961
H    4.8119   -0.3453    1.9803
H    5.9154   -1.8335   -2.0050
H    4.3263    1.8584    1.0603
H    4.3658    1.6835   -0.7165
H    2.1180    2.2828   -0.9087
H    2.2899    2.8864    0.7607
H    1.9458   -2.4615   -0.2232
H    1.9653   -1.8607    1.4422
H   -0.2664   -1.6956    1.4745
H   -0.2953   -2.4907   -0.1022
H    0.0950    3.0221    0.0584
H   -0.2050    2.0015   -1.3703
H   -2.3410    2.8920   -0.9278
H   -2.1048    2.8310    0.8305
H   -2.2167   -2.3600    0.5926
H   -2.1817   -1.1124    1.8469
H   -4.4140   -1.2996    1.9471
H   -4.4526   -2.3325    0.5119


