%nprocshared=4
%mem=100MW
%chk=CHVJITGCYZJHLR-UHFFFAOYSA-N.chk
#b3lyp/6-31+G(d) opt freq

gas opt

0 1
C    0.6633   -1.3860   -0.2130
C   -0.6661   -1.3848   -0.2128
C   -1.5020   -0.3286    0.3294
C   -1.2263    0.9568    0.1811
C    0.0015    1.4193   -0.5518
C    1.2283    0.9543    0.1812
C    1.5013   -0.3315    0.3291
H    1.1595   -2.2415   -0.6472
H   -1.1640   -2.2371   -0.6511
H   -2.3898   -0.6050    0.8787
H   -1.9000    1.6916    0.5966
H    0.0011    1.0038   -1.5595
H    0.0027    2.5079   -0.6079
H    1.9036    1.6876    0.5967
H    2.3880   -0.6099    0.8792


