%nprocshared=4
%mem=100MW
%chk=CJHXCRMKMMBYJQ-UHFFFAOYSA-N.chk
#b3lyp/6-31+G(d) opt freq

gas opt

0 1
O    0.5327    2.3825   -0.5056
C   -0.1009    1.1922   -0.3708
C    0.5952   -0.0031   -0.5467
C    2.0628    0.0032   -0.8889
C    2.8870   -0.0106    0.4001
C    4.3771   -0.0043    0.0527
C    5.2013   -0.0181    1.3416
C   -0.0909   -1.1937   -0.3997
C    0.6202   -2.5100   -0.5800
N   -1.3805   -1.1650   -0.0983
C   -2.0157   -0.0139    0.0629
N   -3.3634   -0.0250    0.3775
C   -4.0699   -1.2995    0.5283
C   -4.0836    1.2377    0.5597
N   -1.3915    1.1478   -0.0642
H    0.5157    2.7376   -1.4049
H    2.3014   -0.8796   -1.4821
H    2.2986    0.9003   -1.4613
H    2.6485    0.8721    0.9934
H    2.6513   -0.9077    0.9725
H    4.6156   -0.8870   -0.5406
H    4.6129    0.8928   -0.5198
H    4.9655   -0.9152    1.9141
H    6.2628   -0.0135    1.0942
H    4.9628    0.8647    1.9349
H    1.0251   -2.8384    0.3773
H   -0.0832   -3.2551   -0.9517
H    1.4332   -2.3888   -1.2959
H   -4.0114   -1.6268    1.5663
H   -5.1149   -1.1713    0.2460
H   -3.6090   -2.0488   -0.1154
H   -3.3983    2.0718    0.4090
H   -4.8965    1.3000   -0.1637
H   -4.4917    1.2807    1.5695


