%nprocshared=4
%mem=100MW
%chk=CKRZKMFTZCFYGB-UHFFFAOYSA-N.chk
#b3lyp/6-31+G(d) opt freq

gas opt

0 1
O    2.7426    0.4334   -0.0010
N    1.7750   -0.6004   -0.0001
C    0.4146   -0.2838   -0.0006
C   -0.5359   -1.2968    0.0003
C   -1.8801   -0.9802    0.0002
C   -2.2803    0.3435   -0.0007
C   -1.3368    1.3544   -0.0017
C    0.0091    1.0448    0.0037
H    3.6563    0.1170   -0.0005
H    2.0569   -1.5286    0.0010
H   -0.2240   -2.3308    0.0007
H   -2.6197   -1.7673    0.0006
H   -3.3322    0.5883   -0.0011
H   -1.6527    2.3871   -0.0024
H    0.7456    1.8348    0.0034


