%nprocshared=4
%mem=100MW
%chk=CMVQZRLQEOAYSW-UHFFFAOYSA-N.chk
#b3lyp/6-31+G(d) opt freq

gas opt

0 1
Cl    0.1346   -1.8921    0.0030
C    0.1790   -0.1567    0.0019
C    1.3954    0.5053    0.0003
Cl    2.8767   -0.3999   -0.0012
C    1.4294    1.8879   -0.0005
C    0.2494    2.6083    0.0002
C   -0.9647    1.9476    0.0018
C   -1.0005    0.5656   -0.0032
N   -2.3011   -0.1410   -0.0019
O   -3.3397    0.4951    0.0036
O   -2.3326   -1.3586   -0.0062
H    2.3776    2.4048   -0.0014
H    0.2763    3.6880   -0.0001
H   -1.8859    2.5114    0.0024


