%nprocshared=4
%mem=100MW
%chk=CNGDZXAWOIPFFX-UHFFFAOYSA-N.chk
#b3lyp/6-31+G(d) opt freq

gas opt

0 1
S   -3.1232    1.4656    0.2207
O   -2.2231    2.3548    0.8676
O   -4.4212    1.1741    0.7200
N   -3.3328    2.0480   -1.3153
C   -2.2848   -0.0781    0.0832
S   -3.0786   -1.6348   -0.0805
C   -1.5931   -2.4685   -0.1389
C   -0.5477   -1.6015   -0.0384
C    0.8616   -2.0235   -0.0578
O    1.1424   -3.2072   -0.0412
C    1.9348   -1.0108   -0.0975
C    1.7241    0.2085   -0.7477
C    2.7276    1.1506   -0.7820
C    3.9490    0.8905   -0.1712
O    4.9355    1.8218   -0.2072
C    6.1652    1.4896    0.4405
C    4.1624   -0.3206    0.4769
C    3.1625   -1.2662    0.5200
C   -0.9655   -0.2240    0.0835
H   -2.9472    2.9016   -1.5672
H   -3.8413    1.5354   -1.9631
H   -1.4943   -3.5391   -0.2416
H    0.7756    0.4112   -1.2229
H    2.5657    2.0928   -1.2845
H    5.9794    1.3005    1.4977
H    6.5884    0.5966   -0.0195
H    6.8657    2.3183    0.3372
H    5.1126   -0.5187    0.9506
H    3.3291   -2.2069    1.0237
H   -0.2753    0.6018    0.1736


