%nprocshared=4
%mem=100MW
%chk=COLNVLDHVKWLRT-UHFFFAOYSA-N.chk
#b3lyp/6-31+G(d) opt freq

gas opt

0 1
O    3.4406   -0.8164    0.1965
C    2.7493    0.1393   -0.0651
O    3.2764    1.3737   -0.0480
C    1.2968   -0.0550   -0.4167
N    1.0768   -1.4449   -0.8382
C    0.4307    0.2501    0.8071
C   -1.0248    0.1755    0.4235
C   -1.7065   -1.0226    0.5277
C   -3.0416   -1.0910    0.1758
C   -3.6951    0.0387   -0.2798
C   -3.0136    1.2370   -0.3831
C   -1.6797    1.3064   -0.0271
H    4.2133    1.4479    0.1794
H    1.0266    0.6185   -1.2301
H    1.3201   -2.0892   -0.1008
H    0.1243   -1.5845   -1.1406
H    0.6379   -0.4795    1.5899
H    0.6590    1.2509    1.1735
H   -1.1960   -1.9052    0.8837
H   -3.5740   -2.0272    0.2566
H   -4.7379   -0.0149   -0.5554
H   -3.5241    2.1195   -0.7394
H   -1.1472    2.2426   -0.1079


