%nprocshared=4
%mem=100MW
%chk=CPGPAVAKSZHMBP-UHFFFAOYSA-N.chk
#b3lyp/6-31+G(d) opt freq

gas opt

0 1
C   -0.0000    2.7190   -0.0021
C   -0.0000    1.2120   -0.0011
C    1.2043    0.5107   -0.0004
C    1.2043   -0.9558    0.0005
C    0.0000   -1.6571    0.0006
C   -1.2043   -0.9558   -0.0001
C   -1.2043    0.5107    0.0048
C   -2.4424    1.1889    0.0044
C   -3.5970    0.4751   -0.0005
C   -3.5970   -0.9202   -0.0047
C   -2.4424   -1.6340    0.0005
C    2.4424   -1.6340    0.0007
C    3.5970   -0.9202    0.0001
C    3.5970    0.4751   -0.0008
C    2.4424    1.1889   -0.0010
H    0.0002    3.0817   -1.0300
H   -0.8901    3.0827    0.5113
H    0.8899    3.0827    0.5117
H    0.0000   -2.7371    0.0009
H   -2.4708    2.2685    0.0083
H   -4.5403    1.0010   -0.0008
H   -4.5403   -1.4461   -0.0082
H   -2.4707   -2.7137   -0.0034
H    2.4708   -2.7136    0.0017
H    4.5403   -1.4461    0.0006
H    4.5403    1.0010   -0.0012
H    2.4708    2.2685   -0.0017


