%nprocshared=4
%mem=100MW
%chk=CPNGPNLZQNNVQM-UHFFFAOYSA-N.chk
#b3lyp/6-31+G(d) opt freq

gas opt

0 1
N    1.1582   -1.3500   -0.0004
C   -0.0171   -0.7099   -0.0003
N   -1.1788   -1.3689   -0.0000
C   -2.3077   -0.6951    0.0004
C   -2.3065    0.7021    0.0002
N   -1.1759    1.3718   -0.0005
C   -0.0186    0.7088    0.0000
C    1.2229    1.3753   -0.0001
N    2.3228    0.6509    0.0007
C    2.2816   -0.6735   -0.0001
H   -3.2471   -1.2280    0.0007
H   -3.2446    1.2373    0.0002
H    1.2713    2.4543   -0.0013
H    3.2134   -1.2194    0.0006


