%nprocshared=4
%mem=100MW
%chk=CTJMNBROBOZHAP-UHFFFAOYSA-N.chk
#b3lyp/6-31+G(d) opt freq

gas opt

0 1
F    2.2043   -3.3424   -0.0474
C    1.4374   -2.2307   -0.0100
C    2.0405   -0.9715    0.0524
N    3.4294   -0.8712    0.0761
C    3.9134    0.0192   -0.9954
C    4.9134    0.5993    0.0146
N    5.0817    2.0559   -0.0745
C    3.8692    0.1491    1.0460
C    1.2680    0.1778    0.0905
C   -0.1184    0.0797    0.0670
N   -0.9009    1.2147    0.1047
C   -0.2401    2.5206    0.1694
C   -0.6069    3.5517   -0.8998
C   -1.1012    3.7306    0.5371
C   -2.2396    1.1734    0.0843
C   -2.9371   -0.0156    0.0241
C   -4.4064   -0.0191    0.0029
O   -5.0173    1.0314    0.0387
O   -5.0770   -1.1871   -0.0560
C   -2.1853   -1.2809   -0.0192
O   -2.7558   -2.3567   -0.0733
C   -0.7159   -1.1924    0.0046
C    0.0765   -2.3425   -0.0390
H    4.3882   -0.5122   -1.8202
H    3.1677    0.7398   -1.3310
H    5.8587    0.0592    0.0672
H    5.7473    2.3854    0.6086
H    5.3529    2.3323   -1.0062
H    3.1117    0.9045    1.2551
H    4.3065   -0.2722    1.9512
H    1.7415    1.1472    0.1387
H    0.7902    2.5090    0.5249
H    0.1820    4.2187   -1.2474
H   -1.3399    3.2584   -1.6513
H   -2.1594    3.5550    0.7308
H   -0.6375    4.5154    1.1348
H   -2.7912    2.1013    0.1164
H   -6.0427   -1.1388   -0.0678
H   -0.3859   -3.3171   -0.0914


