%nprocshared=4
%mem=100MW
%chk=CVQODEWAPZVVBU-UHFFFAOYSA-N.chk
#b3lyp/6-31+G(d) opt freq

gas opt

0 1
O   -1.8266    0.3696   -1.0332
C   -2.1286   -0.0400    0.0702
O   -1.1694   -0.2856    0.9832
C    0.1202   -0.1529    0.5743
C    0.6796    1.1092    0.4381
C    1.9904    1.2413    0.0224
C    2.5988    2.6121   -0.1253
C    2.7446    0.1170   -0.2579
C    2.1892   -1.1421   -0.1234
C    3.0140   -2.3655   -0.4303
C    0.8808   -1.2797    0.2979
N   -3.4239   -0.2434    0.3823
C   -4.4677    0.0294   -0.6087
H    0.0907    1.9878    0.6566
H    3.0591    2.9087    0.8172
H    3.3563    2.5910   -0.9088
H    1.8211    3.3281   -0.3910
H    3.7692    0.2223   -0.5828
H    3.5265   -2.6943    0.4738
H    2.3624   -3.1624   -0.7888
H    3.7496   -2.1246   -1.1977
H    0.4474   -2.2633    0.4028
H   -3.6649   -0.5704    1.2632
H   -4.4283    1.0796   -0.8982
H   -4.3072   -0.5958   -1.4870
H   -5.4442   -0.1924   -0.1783


