%nprocshared=4
%mem=100MW
%chk=CVRALZAYCYJELZ-UHFFFAOYSA-N.chk
#b3lyp/6-31+G(d) opt freq

gas opt

0 1
Br   -4.3002    0.2684    0.3367
C   -2.5226   -0.1786   -0.1282
C   -1.6276    0.8186   -0.4772
Cl   -2.1383    2.4778   -0.4876
C   -0.3274    0.4938   -0.8170
C    0.0801   -0.8318   -0.8082
O    1.3582   -1.1531   -1.1415
P    2.4389   -0.8115    0.0020
S    1.7909   -1.3728    1.6566
O    3.8201   -1.5734   -0.3200
C    5.0574   -1.2429    0.3138
C    2.7309    0.9784    0.0426
C    1.9584    1.7865    0.8556
C    2.1809    3.1505    0.8865
C    3.1763    3.7063    0.1047
C    3.9495    2.8981   -0.7077
C    3.7298    1.5335   -0.7353
C   -0.8186   -1.8300   -0.4580
Cl   -0.3115   -3.4902   -0.4460
C   -2.1166   -1.5006   -0.1137
H    0.3703    1.2719   -1.0895
H    5.3090   -0.2041    0.1001
H    4.9617   -1.3793    1.3910
H    5.8454   -1.8932   -0.0661
H    1.1807    1.3523    1.4664
H    1.5769    3.7820    1.5211
H    3.3497    4.7720    0.1283
H    4.7269    3.3323   -1.3187
H    4.3338    0.9021   -1.3699
H   -2.8160   -2.2770    0.1591


