%nprocshared=4
%mem=100MW
%chk=CVUGPAFCQJIYDT-UHFFFAOYSA-N.chk
#b3lyp/6-31+G(d) opt freq

gas opt

0 1
Cl   -2.6479   -1.8592    0.0150
C   -0.8635   -1.6011    0.0269
Cl   -0.2495   -1.7248    1.7176
Cl   -0.0679   -2.8559   -0.9947
C   -0.5453   -0.2124   -0.5309
C   -1.3361    0.8252    0.2234
C   -2.1630    1.6981   -0.4616
Cl   -2.2897    1.5982   -2.1900
C   -2.8889    2.6499    0.2316
C   -2.7879    2.7287    1.6080
C   -1.9614    1.8569    2.2916
C   -1.2400    0.9015    1.5999
C    0.9274    0.0665   -0.3744
C    1.7150    0.2686   -1.4923
C    3.0657    0.5244   -1.3494
C    3.6294    0.5788   -0.0871
Cl    5.3257    0.9007    0.0933
C    2.8405    0.3769    1.0315
C    1.4890    0.1259    0.8874
H   -0.8118   -0.1753   -1.5872
H   -3.5342    3.3317   -0.3025
H   -3.3546    3.4718    2.1493
H   -1.8823    1.9192    3.3669
H   -0.5946    0.2203    2.1346
H    1.2749    0.2261   -2.4777
H    3.6811    0.6816   -2.2229
H    3.2800    0.4192    2.0171
H    0.8731   -0.0317    1.7605


