%nprocshared=4
%mem=100MW
%chk=CWJSHJJYOPWUGX-UHFFFAOYSA-N.chk
#b3lyp/6-31+G(d) opt freq

gas opt

0 1
Cl   -4.4275    1.0838    0.2300
C   -3.0074    0.1054    0.0314
C   -1.7943    0.7000   -0.2624
C   -0.6595   -0.0836   -0.4210
N    0.5701    0.5151   -0.7180
C    1.7093    0.0007   -0.2141
O    1.6784   -1.0303    0.4283
O    2.8818    0.6292   -0.4225
C    4.0681    0.0180    0.1496
C    5.2817    0.3456   -0.7226
C    4.2926    0.5635    1.5614
C   -0.7466   -1.4631   -0.2839
C   -1.9609   -2.0516    0.0096
C   -3.0891   -1.2687    0.1728
H   -1.7298    1.7728   -0.3688
H    0.6024    1.3004   -1.2865
H    3.9343   -1.0628    0.1948
H    5.4156    1.4264   -0.7677
H    6.1723   -0.1132   -0.2931
H    5.1219   -0.0431   -1.7283
H    4.4264    1.6443    1.5162
H    3.4280    0.3301    2.1828
H    5.1831    0.1047    1.9909
H    0.1347   -2.0750   -0.4071
H   -2.0288   -3.1242    0.1159
H   -4.0376   -1.7314    0.4023


