%nprocshared=4
%mem=100MW
%chk=CXWXQJXEFPUFDZ-UHFFFAOYSA-N.chk
#b3lyp/6-31+G(d) opt freq

gas opt

0 1
C    0.0794    0.6879    0.0313
C    0.0795   -0.6876   -0.0330
C    1.2859   -1.3749   -0.0600
C    2.4836   -0.6905   -0.0286
C    2.4835    0.6905    0.0299
C    1.2859    1.3750    0.0595
C   -1.1900   -1.4968   -0.0832
C   -2.3780   -0.6612    0.3894
C   -2.3791    0.6607   -0.3873
C   -1.1902    1.4969    0.0817
H    1.2867   -2.4539   -0.1056
H    3.4178   -1.2320   -0.0492
H    3.4178    1.2319    0.0523
H    1.2867    2.4541    0.1045
H   -1.3665   -1.8255   -1.1074
H   -1.0857   -2.3698    0.5610
H   -3.3056   -1.2004    0.1975
H   -2.2839   -0.4599    1.4565
H   -2.2878    0.4594   -1.4546
H   -3.3063    1.1998   -0.1930
H   -1.3651    1.8277    1.1055
H   -1.0867    2.3686   -0.5643


