%nprocshared=4
%mem=100MW
%chk=CYFLXLSBHQBMFT-UHFFFAOYSA-N.chk
#b3lyp/6-31+G(d) opt freq

gas opt

0 1
S    0.5212   -1.8811   -0.3220
O    1.2285   -2.9963    0.2024
O    0.0473   -1.8207   -1.6604
N   -0.8005   -1.6654    0.6521
C   -1.6754   -0.6241    0.4090
O   -2.7773   -0.3440    1.1221
C   -3.3594    0.7434    0.5706
C   -4.6228    1.4162    1.0419
C   -2.6038    1.1132   -0.4736
C   -2.8662    2.2799   -1.3906
N   -1.5650    0.2589   -0.5530
C    1.5664   -0.4800   -0.1006
C    2.5421   -0.4951    0.8793
C    3.3630    0.6013    1.0555
C    3.2079    1.7203    0.2471
N    4.0368    2.8307    0.4223
C    2.2268    1.7321   -0.7363
C    1.4130    0.6301   -0.9109
H   -0.9605   -2.2703    1.3934
H   -5.0121    0.8889    1.9128
H   -4.4055    2.4501    1.3103
H   -5.3647    1.3963    0.2435
H   -2.3761    3.1698   -0.9957
H   -2.4723    2.0581   -2.3825
H   -3.9399    2.4555   -1.4570
H    2.6619   -1.3653    1.5077
H    4.1246    0.5890    1.8212
H    4.7217    2.8211    1.1091
H    3.9275    3.6115   -0.1428
H    2.1036    2.6005   -1.3665
H    0.6503    0.6385   -1.6755


