%nprocshared=4
%mem=100MW
%chk=CZGCEKJOLUNIFY-UHFFFAOYSA-N.chk
#b3lyp/6-31+G(d) opt freq

gas opt

0 1
Cl   -3.3768   -0.0000   -0.0006
C   -1.6408   -0.0000   -0.0008
C   -0.9487    1.1980    0.0001
C    0.4334    1.1974    0.0004
C    1.1244   -0.0000   -0.0006
N    2.6045   -0.0000   -0.0002
O    3.2135    1.0548    0.0009
O    3.2135   -1.0548   -0.0010
C    0.4334   -1.1974   -0.0014
C   -0.9487   -1.1980    0.0041
H   -1.4884    2.1335    0.0001
H    0.9737    2.1325    0.0010
H    0.9737   -2.1325   -0.0021
H   -1.4884   -2.1335    0.0038


