%nprocshared=4
%mem=100MW
%chk=CZMRCDWAGMRECN-UGDNZRGBSA-N.chk
#b3lyp/6-31+G(d) opt freq

gas opt

0 1
O   -0.3551   -1.2003   -0.0147
C   -1.2167   -0.7151    1.0170
H   -0.9616   -1.1976    1.9605
C   -2.6710   -1.0316    0.6585
H   -3.3256   -0.6980    1.4637
O   -2.8215   -2.4406    0.4736
C   -3.0399   -0.3017   -0.6367
H   -2.4189   -0.6709   -1.4528
O   -4.4167   -0.5341   -0.9408
C   -2.8009    1.1997   -0.4496
H   -3.4580    1.5784    0.3333
O   -3.0742    1.8830   -1.6745
C   -1.3416    1.4300   -0.0483
H   -0.6860    1.0880   -0.8492
C   -1.1097    2.9221    0.1987
O    0.2764    3.1520    0.4592
O   -1.0561    0.6990    1.1462
C    1.0341   -1.1479    0.3158
C    1.2848   -1.8930    1.6284
O    0.6738   -1.1795    2.7053
C    1.8660   -1.7838   -0.8148
H    2.4339   -2.6347   -0.4384
O    1.0192   -2.1868   -1.8930
C    2.8210   -0.6519   -1.2659
H    2.4289   -0.1391   -2.1442
O    4.1320   -1.1613   -1.5187
C    2.8195    0.2854   -0.0315
H    3.5064   -0.0825    0.7307
C    3.1851    1.7140   -0.4394
O    3.2904    2.5307    0.7286
O    1.4552    0.2206    0.4425
H   -2.5998   -2.9657    1.2548
H   -4.6399   -1.4666   -1.0661
H   -3.9819    1.7763   -1.9904
H   -1.4125    3.4876   -0.6825
H   -1.6991    3.2441    1.0573
H    0.4969    4.0788    0.6252
H    0.8564   -2.8933    1.5660
H    2.3579   -1.9676    1.8046
H    0.7927   -1.5953    3.5702
H    1.4908   -2.5937   -2.6326
H    4.7666   -0.4898   -1.8042
H    4.1393    1.7086   -0.9661
H    2.4109    2.1143   -1.0940
H    3.5202    3.4518    0.5450


