%nprocshared=4
%mem=100MW
%chk=CZPWVGJYEJSRLH-UHFFFAOYSA-N.chk
#b3lyp/6-31+G(d) opt freq

gas opt

0 1
N    1.1515   -0.6690   -0.0000
C    0.0002   -1.3106    0.0000
N   -1.1512   -0.6694    0.0000
C   -1.1906    0.6534    0.0000
C   -0.0003    1.3633    0.0000
C    1.1904    0.6538   -0.0000
H    0.0004   -2.3906   -0.0004
H   -2.1376    1.1727   -0.0003
H   -0.0005    2.4433   -0.0003
H    2.1371    1.1735    0.0003


