%nprocshared=4
%mem=100MW
%chk=DBABZHXKTCFAPX-UHFFFAOYSA-N.chk
#b3lyp/6-31+G(d) opt freq

gas opt

0 1
S   -1.2284    0.4062   -1.1887
O   -1.3628   -0.4952   -2.2789
O   -1.5584    1.7856   -1.2756
N   -2.1388   -0.2155    0.0471
C   -2.6407    0.6673    1.1030
C   -4.0655    1.1096    0.7635
C   -4.5897    2.0316    1.8663
C   -2.4422   -1.6482    0.0844
C   -1.4175   -2.3637    0.9669
C   -1.7344   -3.8600    1.0059
C    0.4580    0.3289   -0.6842
C    1.2111   -0.7965   -0.9687
C    2.5319   -0.8637   -0.5766
C    3.1087    0.2073    0.1088
C    4.5227    0.1426    0.5314
O    5.1865   -0.8438    0.2827
O    5.0761    1.1777    1.1926
C    2.3430    1.3399    0.3927
C    1.0249    1.3961   -0.0102
H   -2.6428    0.1328    2.0529
H   -1.9970    1.5435    1.1805
H   -4.0634    1.6441   -0.1865
H   -4.7092    0.2334    0.6859
H   -3.9460    2.9078    1.9438
H   -5.6048    2.3467    1.6244
H   -4.5919    1.4971    2.8162
H   -3.4414   -1.7975    0.4936
H   -2.3988   -2.0552   -0.9259
H   -0.4183   -2.2144    0.5577
H   -1.4609   -1.9567    1.9772
H   -2.7335   -4.0093    1.4151
H   -1.6909   -4.2670   -0.0043
H   -1.0043   -4.3698    1.6347
H    0.7636   -1.6244   -1.4987
H    3.1185   -1.7428   -0.7991
H    6.0044    1.0892    1.4485
H    2.7830    2.1718    0.9226
H    0.4315    2.2715    0.2087


