%nprocshared=4
%mem=100MW
%chk=DBPWSSGDRRHUNT-UHFFFAOYSA-N.chk
#b3lyp/6-31+G(d) opt freq

gas opt

0 1
O    4.7832    0.2709    1.4039
C    4.3474   -0.4849    0.5689
C    4.7686   -1.9318    0.5691
C    3.3800    0.0162   -0.4669
O    3.5935   -0.6216   -1.7201
C    1.9283   -0.2269    0.0154
C    1.9085    0.1038    1.5123
C    1.2044    0.8133   -0.8277
C   -0.2717    0.8895   -0.5427
C   -0.7625   -0.3551    0.1902
C   -2.2783   -0.3875    0.1739
C   -2.6368   -0.9824    1.5330
C   -2.8970    0.9658    0.1319
C   -4.2502    1.0245   -0.0085
C   -4.9395   -0.2764   -0.0717
O   -5.9505   -0.4876    0.5710
C   -4.3381   -1.3363   -0.9651
C   -2.8176   -1.3412   -0.8643
C   -2.1886    2.2857    0.2271
C   -0.6688    2.1405    0.2454
C   -0.1363   -1.5933   -0.4304
C    1.3807   -1.6178   -0.2350
C    2.0324    2.0733   -0.5451
C    3.4711    1.5404   -0.6032
H    4.0823   -2.5100    1.1878
H    4.7496   -2.3159   -0.4509
H    5.7785   -2.0162    0.9704
H    4.4809   -0.4914   -2.0816
H    2.1213    1.1636    1.6531
H    0.9254   -0.1270    1.9224
H    2.6649   -0.4899    2.0255
H    1.3401    0.5584   -1.9040
H   -0.8083    0.9267   -1.5085
H   -0.4931   -0.2951    1.2351
H   -2.2440   -0.3437    2.3242
H   -3.7207   -1.0503    1.6254
H   -2.2016   -1.9779    1.6201
H   -4.7744    1.9746   -0.0823
H   -4.7293   -2.3164   -0.6792
H   -4.6332   -1.1365   -2.0005
H   -2.4063   -1.0598   -1.8444
H   -2.4772   -2.3561   -0.6419
H   -2.4757    2.8902   -0.6380
H   -2.5167    2.7969    1.1311
H   -0.3173    2.0635    1.2724
H   -0.2184    3.0206   -0.2230
H   -0.5724   -2.4944    0.0086
H   -0.3529   -1.6027   -1.5062
H    1.8474   -2.0471   -1.1334
H    1.6294   -2.2724    0.6112
H    1.8696    2.8175   -1.3341
H    1.8028    2.5093    0.4236
H    4.0577    1.9576    0.2175
H    3.9292    1.8075   -1.5558


