%nprocshared=4
%mem=100MW
%chk=DCAYPVUWAIABOU-UHFFFAOYSA-N.chk
#b3lyp/6-31+G(d) opt freq

gas opt

0 1
C    0.6205   -0.4475   -0.0000
C   -0.6205    0.4475   -0.0000
C   -1.8779   -0.4242    0.0000
C   -3.1188    0.4708   -0.0000
C   -4.3763   -0.4009    0.0000
C   -5.6172    0.4941   -0.0000
C   -6.8746   -0.3776    0.0000
C   -8.1156    0.5174   -0.0000
C   -9.3730   -0.3543    0.0000
C    1.8779    0.4242    0.0000
C    3.1188   -0.4708   -0.0000
C    4.3763    0.4009    0.0000
C    5.6172   -0.4941   -0.0000
C    6.8746    0.3776    0.0000
C    8.1156   -0.5174   -0.0000
C    9.3730    0.3543    0.0000
H    0.6146   -1.0768    0.8900
H    0.6146   -1.0768   -0.8900
H   -0.6146    1.0768    0.8900
H   -0.6146    1.0768   -0.8900
H   -1.8838   -1.0535   -0.8900
H   -1.8838   -1.0535    0.8900
H   -3.1130    1.1001    0.8900
H   -3.1130    1.1001   -0.8900
H   -4.3821   -1.0302   -0.8900
H   -4.3821   -1.0302    0.8900
H   -5.6113    1.1234    0.8900
H   -5.6113    1.1234   -0.8900
H   -6.8805   -1.0069   -0.8900
H   -6.8805   -1.0069    0.8900
H   -8.1097    1.1467    0.8900
H   -8.1097    1.1467   -0.8900
H  -10.2571    0.2833   -0.0000
H   -9.3789   -0.9835   -0.8900
H   -9.3789   -0.9835    0.8900
H    1.8838    1.0535   -0.8900
H    1.8838    1.0535    0.8900
H    3.1130   -1.1001    0.8900
H    3.1130   -1.1001   -0.8900
H    4.3821    1.0302   -0.8900
H    4.3821    1.0302    0.8900
H    5.6113   -1.1234    0.8900
H    5.6113   -1.1234   -0.8900
H    6.8805    1.0069   -0.8900
H    6.8805    1.0069    0.8900
H    8.1097   -1.1467    0.8900
H    8.1097   -1.1467   -0.8900
H   10.2571   -0.2833   -0.0000
H    9.3789    0.9835   -0.8900
H    9.3789    0.9835    0.8900


