%nprocshared=4
%mem=100MW
%chk=DEKWZWCFHUABHE-UHFFFAOYSA-N.chk
#b3lyp/6-31+G(d) opt freq

gas opt

0 1
Cl   -5.5371   -1.6022    0.1417
C   -4.0543   -0.7167   -0.0347
C   -3.4500   -0.6190   -1.2754
C   -2.2695    0.0861   -1.4152
C   -1.6924    0.6933   -0.3155
C   -0.4050    1.4616   -0.4685
C   -0.2417    2.4232    0.7103
C    1.0784    3.1407    0.5941
O    1.8128    2.9071   -0.3356
C    1.4819    4.1498    1.6381
C    0.7542    0.4990   -0.4958
C    1.5161    0.3466   -1.6643
O    1.2260    1.0018   -2.6501
O    2.5558   -0.5004   -1.7265
C    2.9232   -1.2513   -0.6658
C    2.2094   -1.1547    0.5397
C    1.0715   -0.2255    0.6199
O    0.3547   -0.0988    1.7598
C    2.5854   -1.9298    1.6383
C    3.6583   -2.7872    1.5312
C    4.3626   -2.8820    0.3404
C    4.0018   -2.1215   -0.7523
C   -2.2960    0.5964    0.9244
C   -3.4795   -0.1036    1.0643
H   -3.9004   -1.0939   -2.1345
H   -1.7977    0.1624   -2.3837
H   -0.4285    2.0284   -1.3992
H   -1.0530    3.1510    0.7005
H   -0.2689    1.8613    1.6440
H    2.0319    3.6485    2.4346
H    2.1155    4.9107    1.1823
H    0.5903    4.6201    2.0527
H    0.6621   -0.6631    2.4825
H    2.0385   -1.8574    2.5668
H    3.9525   -3.3883    2.3789
H    5.2023   -3.5574    0.2681
H    4.5573   -2.2035   -1.6749
H   -1.8449    1.0713    1.7831
H   -3.9510   -0.1792    2.0330


