%nprocshared=4
%mem=100MW
%chk=DEWLEGDTCGBNGU-UHFFFAOYSA-N.chk
#b3lyp/6-31+G(d) opt freq

gas opt

0 1
Cl   -2.7176    0.0131   -0.2792
C   -1.2492   -0.7516    0.4348
C   -0.0000   -0.0271   -0.0706
O    0.0000    1.3171    0.4144
C    1.2492   -0.7516    0.4348
Cl    2.7176    0.0131   -0.2792
H   -1.2952   -0.6816    1.5216
H   -1.2056   -1.8000    0.1398
H   -0.0000   -0.0201   -1.1605
H    0.0000    1.3873    1.3788
H    1.2952   -0.6816    1.5216
H    1.2056   -1.8000    0.1398


