%nprocshared=4
%mem=100MW
%chk=DFBKLUNHFCTMDC-PICURKEMSA-N.chk
#b3lyp/6-31+G(d) opt freq

gas opt

0 1
Cl    1.5510   -0.0024    2.5875
C    1.3756    0.0002    0.7955
Cl    2.9654    0.0028   -0.0509
C    0.4200   -1.1456    0.2791
Cl    1.0297   -2.8326    0.4769
C    0.2288   -0.6600   -1.1582
C    0.2262    0.6640   -1.1562
Cl    0.0397    1.6757   -2.5551
C    0.4180    1.1457    0.2824
Cl    1.0241    2.8333    0.4851
C   -0.8760    0.7777    1.0538
H   -0.8833    1.1873    2.0778
C   -0.8739   -0.7822    1.0526
H   -0.8785   -1.1932    2.0761
C   -2.1476   -1.1692    0.2627
H   -2.1925   -2.1820   -0.1325
C   -3.3093   -0.7784    1.2421
H   -3.4442   -1.3738    2.1398
O   -4.3792   -0.0053    0.7004
C   -3.3112    0.7709    1.2410
H   -3.4476    1.3675    2.1379
C   -2.1493    1.1627    0.2621
H   -2.1950    2.1751   -0.1338
C   -2.3119   -0.0036   -0.7685
Cl    0.0493   -1.6677   -2.5610
H   -1.6275   -0.0035   -1.5897
H   -3.3414   -0.0046   -1.1817


