%nprocshared=4
%mem=100MW
%chk=DFCAFRGABIXSDS-UHFFFAOYSA-N.chk
#b3lyp/6-31+G(d) opt freq

gas opt

0 1
S    2.5038   -0.2119   -0.1837
C    0.7794    0.1336   -0.0757
O    0.4004    1.2492    0.2258
N   -0.1197   -0.8385   -0.3271
C    0.3368   -2.1824   -0.6902
C    0.5085   -3.0225    0.5769
C   -1.5534   -0.5513   -0.2373
C   -1.8935   -0.0914    1.1817
C   -3.3909    0.2086    1.2755
C   -3.7530    1.3133    0.2807
C   -3.4129    0.8533   -1.1383
C   -1.9155    0.5534   -1.2321
C    3.1772    1.4128    0.2442
C    4.7058    1.3551    0.2148
H   -0.4001   -2.6530   -1.3411
H    1.2912   -2.1132   -1.2123
H   -0.4459   -3.0916    1.0990
H    0.8481   -4.0223    0.3068
H    1.2454   -2.5519    1.2278
H   -2.1199   -1.4523   -0.4728
H   -1.6356   -0.8784    1.8904
H   -1.3271    0.8096    1.4172
H   -3.9574   -0.6924    1.0400
H   -3.6332    0.5363    2.2864
H   -4.8198    1.5270    0.3476
H   -3.1865    2.2142    0.5162
H   -3.9794   -0.0476   -1.3738
H   -3.6709    1.6403   -1.8469
H   -1.3490    1.4543   -0.9966
H   -1.6732    0.2257   -2.2430
H    2.8276    2.1522   -0.4764
H    2.8433    1.6929    1.2433
H    5.0554    0.6157    0.9354
H    5.0398    1.0750   -0.7842
H    5.1114    2.3335    0.4725


