%nprocshared=4
%mem=100MW
%chk=DFPAKSUCGFBDDF-UHFFFAOYSA-N.chk
#b3lyp/6-31+G(d) opt freq

gas opt

0 1
O    2.2618   -1.1355    0.0023
C    1.6747   -0.0712    0.0022
N    2.3713    1.0826   -0.0032
C    0.1966   -0.0423    0.0017
C   -0.4894    1.1730    0.0015
N   -1.8058    1.1989    0.0006
C   -2.5245    0.0922   -0.0002
C   -1.9201   -1.1518    0.0004
C   -0.5385   -1.2336   -0.0045
H    3.3411    1.0637   -0.0069
H    1.9028    1.9320   -0.0033
H    0.0643    2.1003    0.0024
H   -3.6025    0.1590   -0.0009
H   -2.5199   -2.0499    0.0002
H   -0.0404   -2.1919   -0.0046


