%nprocshared=4
%mem=100MW
%chk=DFXQXFGFOLXAPO-UHFFFAOYSA-N.chk
#b3lyp/6-31+G(d) opt freq

gas opt

0 1
Cl   -2.6797   -1.3790   -0.0005
C   -1.0050   -0.9218   -0.0008
C   -0.6560    0.4190   -0.0005
N   -1.7113    1.4568    0.0000
O   -1.4059    2.6359    0.0003
O   -2.8851    1.1318    0.0002
C    0.6721    0.7885   -0.0003
C    1.6669   -0.1922   -0.0008
C    3.0914    0.1967   -0.0001
O    3.4002    1.3716    0.0010
O    4.0485   -0.7514   -0.0006
C    1.3086   -1.5420   -0.0016
C   -0.0234   -1.8988    0.0044
H    0.9430    1.8340   -0.0001
H    4.9667   -0.4482   -0.0001
H    2.0732   -2.3048   -0.0024
H   -0.3017   -2.9423    0.0042


