%nprocshared=4
%mem=100MW
%chk=DHMQDGOQFOQNFH-UHFFFAOYSA-N.chk
#b3lyp/6-31+G(d) opt freq

gas opt

0 1
O    0.4287   -1.2349   -0.0228
C    0.4984   -0.0288   -0.0031
O    1.6975    0.5740    0.0164
C   -0.7610    0.7988   -0.0067
N   -1.9306   -0.0895   -0.0358
H    2.4768    0.0015    0.0137
H   -0.7942    1.4138    0.8926
H   -0.7709    1.4415   -0.8870
H   -1.9105   -0.7393    0.7359
H   -2.7883    0.4419   -0.0388


