%nprocshared=4
%mem=100MW
%chk=DHXVGJBLRPWPCS-UHFFFAOYSA-N.chk
#b3lyp/6-31+G(d) opt freq

gas opt

0 1
O   -1.3418   -0.0000   -0.2464
C   -0.7270   -1.1992    0.2293
C    0.7281   -1.2473   -0.2440
C    1.4618    0.0000    0.2583
C    0.7281    1.2473   -0.2440
C   -0.7270    1.1991    0.2293
H   -0.7556   -1.2148    1.3188
H   -1.2650   -2.0630   -0.1611
H    1.2114   -2.1394    0.1545
H    0.7562   -1.2725   -1.3333
H    1.4770    0.0000    1.3482
H    2.4833    0.0000   -0.1219
H    1.2114    2.1394    0.1545
H    0.7562    1.2725   -1.3333
H   -1.2650    2.0630   -0.1611
H   -0.7556    1.2148    1.3188


