%nprocshared=4
%mem=100MW
%chk=DJHHDLMTUOLVHY-UHFFFAOYSA-N.chk
#b3lyp/6-31+G(d) opt freq

gas opt

0 1
Cl   -3.4806   -1.5593   -0.0037
C   -1.9766   -0.6923   -0.0031
C   -1.9768    0.6918   -0.0013
Cl   -3.4812    1.5582    0.0002
C   -0.7788    1.3867   -0.0004
Cl   -0.7821    3.1227    0.0029
C    0.4228    0.6957   -0.0016
O    1.6009    1.3766   -0.0001
C    2.7787    0.6964   -0.0009
C    2.7787   -0.6955   -0.0032
O    1.6009   -1.3757   -0.0051
C    0.4229   -0.6949   -0.0038
C   -0.7783   -1.3865    0.0015
Cl   -0.7806   -3.1225    0.0071
C    3.9789   -1.3857   -0.0030
C    5.1756   -0.6910   -0.0006
C    5.1757    0.6907    0.0021
C    3.9793    1.3859    0.0015
H    3.9811   -2.4657   -0.0044
H    6.1115   -1.2299   -0.0004
H    6.1118    1.2293    0.0044
H    3.9821    2.4659    0.0032


