%nprocshared=4
%mem=100MW
%chk=DKMROQRQHGEIOW-UHFFFAOYSA-N.chk
#b3lyp/6-31+G(d) opt freq

gas opt

0 1
O    1.8925   -1.4570    0.0034
C    1.8876   -0.2487    0.0050
O    3.0473    0.4271    0.0017
C    4.2682   -0.3588   -0.0036
C    5.4778    0.5781   -0.0067
C    0.5794    0.4995    0.0043
C   -0.5794   -0.4995    0.0016
C   -1.8876    0.2487    0.0009
O   -1.8925    1.4570    0.0025
O   -3.0473   -0.4271   -0.0014
C   -4.2682    0.3588   -0.0019
C   -5.4778   -0.5781   -0.0046
H    4.2988   -0.9886    0.8854
H    4.2925   -0.9863   -0.8945
H    5.4472    1.2080   -0.8958
H    5.4536    1.2057    0.8841
H    6.3944   -0.0118   -0.0108
H    0.5181    1.1247    0.8950
H    0.5203    1.1270   -0.8849
H   -0.5181   -1.1247   -0.8891
H   -0.5203   -1.1270    0.8908
H   -4.2968    0.9863    0.8889
H   -4.2945    0.9886   -0.8911
H   -5.4493   -1.2057   -0.8954
H   -5.4515   -1.2080    0.8846
H   -6.3944    0.0118   -0.0050


