%nprocshared=4
%mem=100MW
%chk=DLFVBJFMPXGRIB-UHFFFAOYSA-N.chk
#b3lyp/6-31+G(d) opt freq

gas opt

0 1
O    0.2848   -1.2444   -0.0003
C    0.0303   -0.0586    0.0015
N    1.0300    0.8452   -0.0003
C   -1.4039    0.4041   -0.0004
H    1.9531    0.5474   -0.0030
H    0.8264    1.7936    0.0012
H   -1.7518    0.5137    1.0268
H   -1.4754    1.3637   -0.5125
H   -2.0220   -0.3302   -0.5170


