%nprocshared=4
%mem=100MW
%chk=DLKQHBOKULLWDQ-UHFFFAOYSA-N.chk
#b3lyp/6-31+G(d) opt freq

gas opt

0 1
Br   -2.1416    0.3783   -0.0003
C   -0.5051   -0.5693   -0.0004
C    0.7158    0.1283   -0.0001
C    1.9316   -0.5997   -0.0003
C    1.8937   -2.0046   -0.0011
C    0.6934   -2.6463   -0.0019
C   -0.5026   -1.9312    0.0048
C    3.1521    0.0972    0.0000
C    3.1503    1.4581    0.0004
C    1.9544    2.1740    0.0006
C    0.7539    1.5329   -0.0001
H    2.8125   -2.5723   -0.0016
H    0.6676   -3.7260   -0.0029
H   -1.4415   -2.4649    0.0041
H    4.0864   -0.4444    0.0003
H    4.0895    1.9913    0.0010
H    1.9809    3.2537    0.0012
H   -0.1647    2.1008   -0.0003


