%nprocshared=4
%mem=100MW
%chk=DMDGGSIALPNSEE-UHFFFAOYSA-N.chk
#b3lyp/6-31+G(d) opt freq

gas opt

0 1
S   -2.1960   -1.5545    0.1106
O   -3.0645   -1.0357    1.1085
O   -1.6693   -2.8737    0.1482
N   -3.0014   -1.4135   -1.3295
C   -0.8110   -0.4675    0.0422
C   -1.0057    0.9008   -0.0102
C   -2.4049    1.4605   -0.0011
F   -2.3547    2.8450   -0.1957
F   -3.1493    0.8718   -1.0289
F   -3.0096    1.1843    1.2299
C    0.0751    1.7552   -0.0703
C    1.3729    1.2458   -0.0758
N    2.4418    2.1340   -0.1586
C    3.8011    1.7964    0.2567
N    4.1797    0.5101   -0.3628
S    3.1967   -0.7886   -0.0017
O    3.2855   -1.6879   -1.0983
O    3.4816   -1.1581    1.3406
C    1.5569   -0.1289   -0.0141
C    0.4736   -0.9803    0.0466
H   -3.9002   -1.0493   -1.3488
H   -2.5744   -1.6950   -2.1536
H   -0.0843    2.8225   -0.1136
H    2.2755    3.0225   -0.5104
H    4.4880    2.5765   -0.0714
H    3.8397    1.7048    1.3422
H    4.9518    0.4258   -0.9439
H    0.6282   -2.0482    0.0926


