%nprocshared=4
%mem=100MW
%chk=DNJIEGIFACGWOD-UHFFFAOYSA-N.chk
#b3lyp/6-31+G(d) opt freq

gas opt

0 1
S    1.0243   -0.1671   -0.0000
C   -0.5821    0.6755   -0.0000
C   -1.7039   -0.3650    0.0000
H    1.9010    0.8529    0.0000
H   -0.6652    1.2993    0.8900
H   -0.6652    1.2993   -0.8900
H   -2.6691    0.1414   -0.0000
H   -1.6208   -0.9888   -0.8900
H   -1.6208   -0.9888    0.8900


