%nprocshared=4
%mem=100MW
%chk=DOIRQSBPFJWKBE-UHFFFAOYSA-N.chk
#b3lyp/6-31+G(d) opt freq

gas opt

0 1
O    1.1498   -0.1882   -1.5780
C    1.5009    0.4821   -0.6280
O    2.6135    0.1510    0.0555
C    3.3430   -1.0190   -0.3997
C    4.5672   -1.2356    0.4922
C    5.3359   -2.4685    0.0126
C    6.5600   -2.6851    0.9046
C    0.7106    1.6649   -0.2253
C   -0.6626    1.5361    0.0582
C   -1.3229    0.2174   -0.0449
O   -0.6618   -0.7772   -0.2657
O   -2.6579    0.1189    0.1060
C   -3.2381   -1.2072   -0.0081
C   -4.7526   -1.1201    0.1909
C   -5.3640   -2.5175    0.0708
C   -6.8785   -2.4303    0.2698
C   -1.3946    2.6581    0.4367
C   -0.7726    3.8893    0.5322
C    0.5764    4.0157    0.2537
C    1.3207    2.9115   -0.1186
H    2.6955   -1.8943   -0.3468
H    3.6661   -0.8678   -1.4296
H    5.2147   -0.3604    0.4394
H    4.2441   -1.3869    1.5222
H    4.6884   -3.3437    0.0655
H    5.6590   -2.3173   -1.0173
H    6.2369   -2.8363    1.9345
H    7.1077   -3.5634    0.5629
H    7.2075   -1.8099    0.8517
H   -3.0244   -1.6135   -0.9967
H   -2.8085   -1.8585    0.7531
H   -4.9664   -0.7138    1.1795
H   -5.1822   -0.4688   -0.5702
H   -5.1503   -2.9238   -0.9178
H   -4.9344   -3.1687    0.8319
H   -7.3141   -3.4258    0.1842
H   -7.0923   -2.0240    1.2584
H   -7.3081   -1.7791   -0.4914
H   -2.4483    2.5670    0.6553
H   -1.3436    4.7577    0.8257
H    1.0521    4.9822    0.3311
H    2.3735    3.0177   -0.3346


