%nprocshared=4
%mem=100MW
%chk=DPJCXCZTLWNFOH-UHFFFAOYSA-N.chk
#b3lyp/6-31+G(d) opt freq

gas opt

0 1
O    2.2589    0.5561   -0.5855
N    1.6234   -0.3217   -0.0295
O    2.2053   -1.2350    0.5279
C    0.1441   -0.2751   -0.0258
C   -0.5131    0.9435    0.0891
N    0.2208    2.1267    0.2009
C   -1.9014    0.9827    0.0921
C   -2.6241   -0.1891   -0.0191
C   -1.9669   -1.4002   -0.1333
C   -0.5845   -1.4423   -0.1424
H    1.1837    2.0915    0.3119
H   -0.2326    2.9836    0.1676
H   -2.4154    1.9284    0.1817
H   -3.7037   -0.1594   -0.0164
H   -2.5343   -2.3151   -0.2201
H   -0.0742   -2.3900   -0.2318


