%nprocshared=4
%mem=100MW
%chk=DPSPPJIUMHPXMA-UHFFFAOYSA-N.chk
#b3lyp/6-31+G(d) opt freq

gas opt

0 1
F   -3.7281   -2.6096   -0.0826
C   -2.7710   -1.6577   -0.0257
C   -1.4395   -2.0146   -0.0484
C   -0.4569   -1.0262    0.0123
C    0.9714   -1.3946   -0.0161
O    1.3275   -2.5576   -0.0894
C    1.9462   -0.2949    0.0476
C    3.3896   -0.5701    0.0146
O    4.1847    0.3479    0.0680
O    3.8317   -1.8404   -0.0749
C    1.4798    0.9972    0.1384
N    0.1695    1.3020    0.1732
C   -0.1906    2.7216    0.2963
C    0.9124    3.5818   -0.3236
C   -1.5099    2.9858   -0.4299
C   -2.5956    2.1091    0.2019
C   -2.1631    0.6665    0.1170
C   -0.8114    0.3328    0.1002
C   -3.1261   -0.3177    0.0499
H   -1.1583   -3.0553   -0.1125
H    4.7896   -1.9716   -0.0933
H    2.1978    1.8026    0.1840
H   -0.3005    2.9775    1.3501
H    1.1140    3.2383   -1.3382
H    0.5900    4.6227   -0.3497
H    1.8191    3.4972    0.2755
H   -1.7811    4.0364   -0.3263
H   -1.4040    2.7342   -1.4852
H   -2.7300    2.3896    1.2466
H   -3.5331    2.2421   -0.3381
H   -4.1705   -0.0430    0.0607


