%nprocshared=4
%mem=100MW
%chk=DQJCHOQLCLEDLL-UHFFFAOYSA-N.chk
#b3lyp/6-31+G(d) opt freq

gas opt

0 1
C   -1.1466    2.6847   -0.0013
C   -1.5006    1.2199   -0.0011
C   -0.4784    0.2584   -0.0009
N    0.8977    0.4909   -0.0003
C    1.7045   -0.6009    0.0003
S    0.6484   -2.0175    0.0001
C   -0.8526   -1.0826   -0.0007
C   -2.1852   -1.4628   -0.0008
C   -3.1746   -0.5000   -0.0010
C   -2.8219    0.8392    0.0045
N    2.9499   -0.1928    0.0007
N    2.9781    1.0926    0.0004
C    1.7656    1.5665   -0.0002
H   -1.0612    3.0377   -1.0290
H   -1.9264    3.2470    0.5124
H   -0.1962    2.8288    0.5126
H   -2.4491   -2.5101   -0.0010
H   -4.2153   -0.7888   -0.0011
H   -3.5943    1.5941    0.0047
H    1.4883    2.6103   -0.0006


