%nprocshared=4
%mem=100MW
%chk=DQWPFSLDHJDLRL-UHFFFAOYSA-N.chk
#b3lyp/6-31+G(d) opt freq

gas opt

0 1
P    0.0000   -0.3457   -0.3849
O    0.0000   -0.9754   -1.7242
O   -0.0000    1.2563   -0.5450
C    0.0000    2.1500    0.5701
C   -0.0000    3.5945    0.0660
O   -1.3146   -0.8042    0.4237
C   -2.6393   -0.6359   -0.0849
C   -3.6480   -1.1760    0.9308
O    1.3146   -0.8042    0.4237
C    2.6393   -0.6359   -0.0849
C    3.6480   -1.1760    0.9308
H   -0.8900    1.9762    1.1749
H    0.8900    1.9762    1.1749
H   -0.0000    4.2762    0.9165
H    0.8900    3.7683   -0.5389
H   -0.8900    3.7683   -0.5389
H   -2.8300    0.4232   -0.2585
H   -2.7405   -1.1817   -1.0229
H   -3.4573   -2.2350    1.1044
H   -3.5469   -0.6301    1.8688
H   -4.6585   -1.0476    0.5428
H    2.7405   -1.1817   -1.0229
H    2.8300    0.4232   -0.2585
H    4.6585   -1.0476    0.5428
H    3.5469   -0.6301    1.8688
H    3.4573   -2.2350    1.1044


