%nprocshared=4
%mem=100MW
%chk=DQZCVNGCTZLGAQ-UHFFFAOYSA-N.chk
#b3lyp/6-31+G(d) opt freq

gas opt

0 1
O    1.4236   -1.3528    0.4202
C    1.8426   -0.2490    0.1298
N    3.1687   -0.0083    0.1363
C    4.1053   -1.0767    0.4933
C    3.6736    1.3217   -0.2137
N    0.9813    0.7324   -0.2041
C   -0.4598    0.4691   -0.2170
C   -1.2197    1.7800   -0.0037
C   -2.6691    1.4726    0.3776
C   -2.6973    0.3452    1.4114
C   -3.3355   -0.8997    0.7917
C   -2.3331   -1.5706   -0.1496
C   -2.2426   -0.7719   -1.4513
C   -0.8556   -0.1363   -1.5654
H    3.5494   -1.9863    0.7207
H    4.7801   -1.2627   -0.3423
H    4.6834   -0.7762    1.3672
H    3.7429    1.9324    0.6865
H    4.6607    1.2281   -0.6662
H    2.9926    1.7941   -0.9217
H    1.3155    1.6130   -0.4358
H   -0.7087   -0.2293    0.5819
H   -0.7461    2.3484    0.7967
H   -1.2021    2.3640   -0.9239
H   -3.1305    2.3650    0.8006
H   -3.2209    1.1648   -0.5106
H   -1.6792    0.1140    1.7245
H   -3.2807    0.6602    2.2765
H   -3.6146   -1.5966    1.5819
H   -4.2243   -0.6114    0.2305
H   -1.3529   -1.6022    0.3261
H   -2.6636   -2.5859   -0.3686
H   -2.4077   -1.4378   -2.2983
H   -3.0017    0.0103   -1.4510
H   -0.8760    0.6468   -2.3234
H   -0.1292   -0.8978   -1.8491


