%nprocshared=4
%mem=100MW
%chk=DRLFMBDRBRZALE-UHFFFAOYSA-N.chk
#b3lyp/6-31+G(d) opt freq

gas opt

0 1
O   -4.2276   -0.9161    1.4818
C   -4.4506   -0.8119    0.2942
N   -3.5443   -0.2255   -0.5127
C   -2.2897    0.2860    0.0446
C   -1.4461    0.8981   -1.0755
C   -0.1556    1.4243   -0.5022
C    1.0690    0.6563   -0.2639
C    1.9986    1.5635    0.2756
N    1.3712    2.7891    0.3538
H    1.7779    3.6031    0.6899
C    0.0913    2.6868   -0.1185
C    3.2736    1.1206    0.6099
C    3.6183   -0.1981    0.4121
C    2.7004   -1.0985   -0.1218
O    3.0571   -2.3972   -0.3106
C    4.3870   -2.7653    0.0607
C    1.4295   -0.6783   -0.4606
C   -5.7384   -1.3437   -0.2801
H   -3.7227   -0.1421   -1.4625
H   -2.5085    1.0482    0.7926
H   -1.7386   -0.5315    0.5093
H   -1.2274    0.1359   -1.8234
H   -1.9973    1.7156   -1.5402
H   -0.6176    3.4999   -0.1690
H    3.9937    1.8106    1.0244
H    4.6101   -0.5367    0.6732
H    4.5340   -2.5728    1.1234
H    4.5403   -3.8254   -0.1412
H    5.1011   -2.1784   -0.5170
H    0.7183   -1.3778   -0.8742
H   -6.4977   -0.5621   -0.2544
H   -5.5743   -1.6572   -1.3111
H   -6.0745   -2.1964    0.3098


