%nprocshared=4
%mem=100MW
%chk=DRUIESSIVFYOMK-UHFFFAOYSA-N.chk
#b3lyp/6-31+G(d) opt freq

gas opt

0 1
Cl   -0.5338   -1.6995    0.0350
C    0.0672    0.0000    0.0000
Cl   -0.5338    0.8194   -1.4893
Cl   -0.5338    0.8801    1.4543
C    1.5392    0.0000    0.0000
N    2.6752    0.0000    0.0000


