%nprocshared=4
%mem=100MW
%chk=DTGKSKDOIYIVQL-UHFFFAOYSA-N.chk
#b3lyp/6-31+G(d) opt freq

gas opt

0 1
O    2.3904    0.0729    0.0855
C    1.2160    0.7060   -0.4264
C    0.1250   -0.3580   -0.7568
C    0.6225   -1.6401   -1.4273
C   -0.5499   -0.5279    0.6500
C   -1.8331   -1.3577    0.5743
C    0.4240   -1.0854    1.6900
C   -0.8471    0.9964    0.8770
C    0.5722    1.6029    0.6556
C   -1.6252    1.3362   -0.4308
C   -0.9717    0.4350   -1.5313
H    3.1030    0.6873    0.3084
H    1.4569    1.2914   -1.3137
H    1.3552   -2.1262   -0.7832
H   -0.2186   -2.3131   -1.5934
H    1.0853   -1.3942   -2.3831
H   -1.6020   -2.3496    0.1859
H   -2.2658   -1.4493    1.5705
H   -2.5456   -0.8654   -0.0875
H    1.2688   -0.4051    1.7981
H   -0.0861   -1.1864    2.6480
H    0.7831   -2.0619    1.3649
H   -1.3356    1.2572    1.8159
H    1.1515    1.5609    1.5780
H    0.4951    2.6306    0.3007
H   -2.6823    1.0956   -0.3175
H   -1.4993    2.3885   -0.6854
H   -0.5323    1.0514   -2.3156
H   -1.7105   -0.2471   -1.9519


