%nprocshared=4
%mem=100MW
%chk=DVVGIUUJYPYENY-UHFFFAOYSA-N.chk
#b3lyp/6-31+G(d) opt freq

gas opt

0 1
O   -1.4174   -1.4895   -0.0013
C   -0.4409   -0.7572   -0.0011
N   -0.6021    0.5797   -0.0002
C   -1.9531    1.1461    0.0006
C    0.4732    1.4085    0.0006
C    1.7310    0.9087   -0.0005
C    1.9328   -0.4786   -0.0020
C    0.8513   -1.3098    0.0041
H   -2.2879    1.2860    1.0284
H   -1.9442    2.1077   -0.5126
H   -2.6325    0.4662   -0.5135
H    0.3232    2.4781    0.0017
H    2.5785    1.5782   -0.0007
H    2.9336   -0.8847   -0.0028
H    0.9866   -2.3813    0.0031


