%nprocshared=4
%mem=100MW
%chk=DXXVCXKMSWHGTF-UHFFFAOYSA-N.chk
#b3lyp/6-31+G(d) opt freq

gas opt

0 1
Cl   -3.1142   -2.7337   -0.1032
C   -2.8159   -1.0236   -0.0890
C   -1.5163   -0.5439   -0.1871
O   -0.4764   -1.4127   -0.2945
C    0.7786   -0.8984   -0.3768
C    1.5130   -0.6721    0.7777
C    2.7929   -0.1474    0.6903
O    3.5152    0.0750    1.8198
C    2.8932   -0.2552    3.0632
C    3.3364    0.1504   -0.5516
N    4.7032    0.7108   -0.6455
O    5.1807    0.9723   -1.7350
O    5.3504    0.9105    0.3668
C    2.6030   -0.0763   -1.7003
C    1.3287   -0.6043   -1.6164
C   -1.2811    0.8228   -0.1760
C   -2.3396    1.7044   -0.0672
C   -3.6336    1.2252    0.0305
Cl   -4.9611    2.3355    0.1670
C   -3.8719   -0.1380    0.0143
H    1.0882   -0.9041    1.7432
H    2.6486   -1.3173    3.0764
H    3.5760   -0.0294    3.8823
H    1.9806    0.3293    3.1794
H    3.0279    0.1557   -2.6658
H    0.7574   -0.7806   -2.5158
H   -0.2712    1.1978   -0.2519
H   -2.1564    2.7688   -0.0582
H   -4.8829   -0.5102    0.0904


