%nprocshared=4
%mem=100MW
%chk=DYDNPESBYVVLBO-UHFFFAOYSA-N.chk
#b3lyp/6-31+G(d) opt freq

gas opt

0 1
O   -2.3028   -0.8977   -0.5340
C   -2.4835    0.1762   -0.0001
N   -1.4300    0.9419    0.3470
C   -0.1283    0.4526    0.1922
C    0.9071    1.3196   -0.1316
C    2.1908    0.8335   -0.2838
C    2.4457   -0.5151   -0.1145
C    1.4169   -1.3810    0.2079
C    0.1321   -0.9002    0.3676
H   -3.4886    0.5210    0.1931
H   -1.5742    1.8321    0.7042
H    0.7086    2.3728   -0.2647
H    2.9965    1.5073   -0.5356
H    3.4503   -0.8928   -0.2348
H    1.6192   -2.4337    0.3395
H   -0.6709   -1.5770    0.6198


