%nprocshared=4
%mem=100MW
%chk=DZTHIGRZJZPRDV-UHFFFAOYSA-N.chk
#b3lyp/6-31+G(d) opt freq

gas opt

0 1
O    3.6448   -0.2110    0.9649
C    3.0611    0.7207    0.4637
O    3.6598    1.9188    0.3758
C    1.6633    0.5360   -0.0682
N    1.2411   -0.8514    0.1395
C    1.5703   -1.7981   -0.7616
O    2.2161   -1.5013   -1.7444
C    1.1361   -3.2252   -0.5479
C    0.7082    1.4757    0.6705
C   -0.6648    1.3806    0.0566
C   -1.6972    0.3928    0.3796
C   -2.7989    0.6998   -0.4400
N   -2.4482    1.7941   -1.1986
H   -3.0195    2.2238   -1.8543
C   -1.1759    2.1886   -0.8857
C   -3.9485   -0.0785   -0.3559
C   -3.9954   -1.1369    0.5251
C   -2.9061   -1.4354    1.3317
C   -1.7664   -0.6842    1.2649
H    4.5581    1.9876    0.7271
H    1.6468    0.7652   -1.1337
H    0.7247   -1.0887    0.9255
H    0.1619   -3.3818   -1.0111
H    1.8652   -3.8983   -0.9990
H    1.0670   -3.4279    0.5208
H    0.6571    1.1896    1.7210
H    1.0719    2.5001    0.5902
H   -0.6574    3.0228   -1.3347
H   -4.8017    0.1461   -0.9789
H   -4.8890   -1.7402    0.5889
H   -2.9595   -2.2680    2.0174
H   -0.9227   -0.9223    1.8957


