%nprocshared=4
%mem=100MW
%chk=DZZWHBIBMUVIIW-DTORHVGOSA-N.chk
#b3lyp/6-31+G(d) opt freq

gas opt

0 1
F   -2.0451   -2.3272    0.1344
C   -1.0358   -1.4322    0.0611
C   -1.3186   -0.0718   -0.0403
N   -2.6455    0.3576   -0.0655
C   -3.3646   -0.2205   -1.2093
C   -4.7899    0.3359   -1.2466
H   -4.7547    1.4175   -1.3772
C   -5.5536   -0.2946   -2.4128
N   -5.4708    0.0164    0.0159
C   -4.7518    0.5946    1.1597
H   -4.7162    1.6791    1.0564
C   -5.4771    0.2289    2.4563
C   -3.3265    0.0382    1.1970
C   -0.2927    0.8608   -0.1161
F   -0.5832    2.1766   -0.2137
C    1.0319    0.4431   -0.0914
N    2.0577    1.3647   -0.1658
C    1.7184    2.7860   -0.2715
C    2.0724    3.6868    0.9135
C    2.8744    3.7817   -0.3860
C    3.3502    1.0131   -0.1450
C    3.7517   -0.3031   -0.0481
C    5.1794   -0.6482   -0.0284
O    6.0179    0.2294   -0.0978
O    5.5599   -1.9381    0.0668
C    2.7258   -1.3571    0.0360
O    3.0309   -2.5343    0.1233
C    1.3200   -0.9313    0.0110
C    0.2780   -1.8681    0.0926
N    0.5637   -3.2277    0.1994
H   -2.8481    0.0403   -2.1331
H   -3.4002   -1.3050   -1.1060
H   -5.5893   -1.3761   -2.2814
H   -6.5686    0.1019   -2.4391
H   -5.0471   -0.0587   -3.3487
H   -6.4307    0.3271   -0.0023
H   -5.5118   -0.8557    2.5597
H   -4.9435    0.6578    3.3045
H   -6.4926    0.6239    2.4284
H   -3.3617   -1.0434    1.3277
H   -2.7823    0.4876    2.0276
H    0.8035    3.0114   -0.8194
H    1.3905    4.5050    1.1449
H    2.5577    3.2220    1.7717
H    3.8874    3.3793   -0.3826
H    2.7203    4.6624   -1.0094
H    4.1026    1.7854   -0.2066
H    6.5104   -2.1159    0.0760
H   -0.1215   -3.8452    0.4995
H    1.4478   -3.5567   -0.0264


