%nprocshared=4
%mem=100MW
%chk=FBPFZTCFMRRESA-UHFFFAOYSA-N.chk
#b3lyp/6-31+G(d) opt freq

gas opt

0 1
O    0.5677    1.6150    0.0204
C    0.5893    0.2614    0.4778
C   -0.5932   -0.4996   -0.1250
O   -0.5716   -1.8532    0.3324
C   -1.9016    0.1645    0.3088
O   -1.9232    1.5181   -0.1487
C   -3.0841   -0.5965   -0.2940
O   -4.3066   -0.0487    0.2036
C    1.8976   -0.4027    0.0440
O    1.9402   -0.4848   -1.3820
C    3.0813    0.4287    0.5426
O    4.3016   -0.2502    0.2393
H    0.6293    1.7066   -0.9403
H    0.5162    0.2441    1.5652
H   -0.5201   -0.4823   -1.2124
H   -0.6333   -1.9448    1.2931
H   -1.9747    0.1473    1.3962
H   -1.8615    1.6097   -1.1094
H   -3.0601   -0.5042   -1.3799
H   -3.0182   -1.6487   -0.0173
H   -5.1000   -0.4837   -0.1374
H    1.9539   -1.4055    0.4676
H    1.8942    0.3725   -1.8268
H    3.0748    1.4014    0.0508
H    3.0003    0.5661    1.6208
H    5.0957    0.2204    0.5274


