%nprocshared=4
%mem=100MW
%chk=FCYQIDFMSYIAEB-UHFFFAOYSA-N.chk
#b3lyp/6-31+G(d) opt freq

gas opt

0 1
O   -4.6789   -0.9518    0.6832
C   -4.2482   -1.2891   -0.6370
O   -3.1662   -0.4368   -1.0173
C   -1.9529   -0.6927   -0.4588
C   -0.8293    0.0830   -0.7648
O   -0.6707    1.1739   -1.5456
C    0.5579    1.8573   -1.1364
C    0.1732    2.8042   -0.0172
O   -1.0305    2.3223    0.5834
C    1.2071    2.9813    1.0700
C    1.7075    1.6349    1.5920
C    2.4033    0.9160    0.4409
C    1.4268    0.6909   -0.6991
C    0.3807   -0.2668   -0.1812
C    0.5541   -1.2471    0.7679
C   -0.5609   -2.0143    1.0548
C   -1.7747   -1.7351    0.4478
C    1.8806   -1.3832    1.4430
C    2.9370   -0.4452    0.8836
N    3.6294   -1.0761   -0.2492
C    4.2759   -2.3297    0.1611
C    2.7396   -1.2940   -1.3944
C    2.1586    0.0418   -1.8757
C   -5.4398    0.2556    0.7556
H   -3.9172   -2.3274   -0.6569
H   -5.0761   -1.1582   -1.3338
H    1.0038    2.3994   -1.9703
H   -0.0320    3.7822   -0.4525
H   -1.3523    2.8693    1.3131
H    2.0508    3.5443    0.6708
H    0.7650    3.5409    1.8942
H    2.4129    1.7945    2.4075
H    0.8650    1.0393    1.9434
H    3.2365    1.5234    0.0873
H   -0.4860   -2.8308    1.7577
H   -2.6224   -2.3619    0.6824
H    1.7555   -1.1755    2.5057
H    2.2281   -2.4100    1.3283
H    3.6818   -0.2764    1.6613
H    3.5131   -3.0649    0.4177
H    4.8853   -2.7096   -0.6589
H    4.9090   -2.1450    1.0290
H    3.3018   -1.7565   -2.2057
H    1.9258   -1.9561   -1.0986
H    1.4591   -0.1339   -2.6929
H    2.9644    0.6937   -2.2132
H   -4.8367    1.0875    0.3917
H   -6.3343    0.1589    0.1403
H   -5.7287    0.4416    1.7900


