%nprocshared=4
%mem=100MW
%chk=FDPIMTJIUBPUKL-UHFFFAOYSA-N.chk
#b3lyp/6-31+G(d) opt freq

gas opt

0 1
O   -0.0000   -1.1574    0.0021
C    0.0000    0.0502    0.0032
C    1.3051    0.8037    0.0007
C    2.4680   -0.1905   -0.0030
C   -1.3051    0.8037    0.0007
C   -2.4680   -0.1905   -0.0030
H    1.3607    1.4312   -0.8888
H    1.3650    1.4295    0.8912
H    3.4120    0.3545   -0.0047
H    2.4124   -0.8180    0.8866
H    2.4081   -0.8164   -0.8934
H   -1.3650    1.4295    0.8912
H   -1.3607    1.4312   -0.8888
H   -2.4081   -0.8164   -0.8934
H   -2.4124   -0.8180    0.8866
H   -3.4120    0.3545   -0.0047


