%nprocshared=4
%mem=100MW
%chk=FEFQUIPMKBPKAR-UHFFFAOYSA-N.chk
#b3lyp/6-31+G(d) opt freq

gas opt

0 1
O   -0.2525   -2.2213    0.5018
C   -0.3169   -1.0703    0.1180
N    0.8006   -0.4270   -0.2741
C    1.9886   -1.0165   -0.1326
O    2.0579   -2.1295    0.3430
C    3.2510   -0.3004   -0.5644
C    3.5220    0.8411    0.4186
C    2.7442    2.0843    0.0267
C    1.2398    1.9329    0.1590
C    0.7016    0.9191   -0.8613
C   -1.6214   -0.3777    0.0755
C   -2.7550   -1.0455   -0.3920
C   -3.9698   -0.3929   -0.4291
C   -4.0664    0.9204   -0.0043
C   -2.9469    1.5883    0.4597
C   -1.7272    0.9457    0.5080
H    4.0887   -0.9977   -0.5559
H    3.1176    0.1042   -1.5677
H    3.2226    0.5312    1.4198
H    4.5878    1.0696    0.4182
H    3.0677    2.9109    0.6592
H    2.9795    2.3298   -1.0089
H    1.0012    1.5915    1.1663
H    0.7659    2.8993   -0.0128
H    1.2947    0.9693   -1.7745
H   -0.3407    1.1449   -1.0864
H   -2.6809   -2.0704   -0.7242
H   -4.8473   -0.9081   -0.7908
H   -5.0199    1.4267   -0.0354
H   -3.0292    2.6134    0.7894
H   -0.8542    1.4681    0.8704


