%nprocshared=4
%mem=100MW
%chk=FFEARJCKVFRZRR-UHFFFAOYSA-N.chk
#b3lyp/6-31+G(d) opt freq

gas opt

0 1
S    2.6919   -0.5255   -0.4222
C    1.2799    0.2865    0.3762
C   -0.0227   -0.2841   -0.1884
C   -1.2136    0.4008    0.4850
N   -1.2260    1.8254    0.1269
C   -2.4933   -0.2452    0.0200
O   -3.1570    0.2807   -0.8419
O   -2.8958   -1.4047    0.5632
C    4.1191    0.2707    0.3651
H    1.3186    0.1088    1.4509
H    1.3206    1.3586    0.1835
H   -0.0614   -0.1064   -1.2631
H   -0.0634   -1.3561    0.0043
H   -1.1274    0.2988    1.5668
H   -1.3053    1.9466   -0.8716
H   -1.9652    2.3133    0.6102
H   -3.7231   -1.7807    0.2326
H    4.0888    1.3432    0.1727
H    4.0868    0.0934    1.4401
H    5.0393   -0.1460   -0.0444


