%nprocshared=4
%mem=100MW
%chk=FGLBSLMDCBOPQK-UHFFFAOYSA-N.chk
#b3lyp/6-31+G(d) opt freq

gas opt

0 1
O   -1.6374    0.0091   -0.8066
N   -0.7167    0.0017   -0.0093
O   -0.9469   -0.0130    1.1867
C    0.6676    0.0043   -0.4888
C    1.3868    1.2486    0.0360
C    1.3844   -1.2498    0.0154
H    0.6745    0.0133   -1.5788
H    1.3798    1.2396    1.1259
H    2.4167    1.2505   -0.3208
H    0.8761    2.1420   -0.3233
H    1.3774   -1.2588    1.1054
H    0.8720   -2.1363   -0.3585
H    2.4143   -1.2479   -0.3413


