%nprocshared=4
%mem=100MW
%chk=FHADSMKORVFYOS-UHFFFAOYSA-N.chk
#b3lyp/6-31+G(d) opt freq

gas opt

0 1
O    2.5011   -0.0414   -0.7600
C    1.1599   -0.0234   -0.2672
C    0.9082   -1.2773    0.5728
C   -0.5975   -1.4672    0.7666
C   -1.3178   -1.2266   -0.5614
C   -2.1750    0.0363   -0.4557
C   -1.2746    1.2708   -0.5360
C   -0.5470    1.4588    0.7966
C    0.9513    1.2209    0.5986
H    2.7312    0.7254   -1.3023
H    0.4647   -0.0027   -1.1065
H    1.3212   -2.1465    0.0609
H    1.3885   -1.1658    1.5449
H   -0.7945   -2.4835    1.1078
H   -0.9603   -0.7577    1.5103
H   -0.5824   -1.1011   -1.3561
H   -1.9558   -2.0807   -0.7886
H   -2.8941    0.0571   -1.2745
H   -2.7071    0.0358    0.4956
H   -0.5437    1.1362   -1.3332
H   -1.8826    2.1510   -0.7452
H   -0.7088    2.4740    1.1587
H   -0.9345    0.7471    1.5256
H    1.4269    1.0729    1.5681
H    1.3943    2.0857    0.1047


