%nprocshared=4
%mem=100MW
%chk=FLVIGYVXZHLUHP-UHFFFAOYSA-N.chk
#b3lyp/6-31+G(d) opt freq

gas opt

0 1
S   -0.0000   -1.6568    0.0000
C    0.0000    0.0552    0.0040
N    1.1672    0.7291    0.0028
C    2.4359   -0.0034   -0.0020
C    3.5988    0.9908   -0.0025
N   -1.1672    0.7291    0.0028
C   -2.4359   -0.0034   -0.0020
C   -3.5988    0.9908   -0.0025
H    1.1672    1.6991    0.0050
H    2.4958   -0.6321    0.8864
H    2.4915   -0.6280   -0.8936
H    3.5432    1.6154    0.8891
H    4.5428    0.4458   -0.0060
H    3.5390    1.6196   -0.8908
H   -1.1672    1.6991    0.0050
H   -2.4915   -0.6280   -0.8936
H   -2.4958   -0.6321    0.8864
H   -4.5428    0.4459   -0.0060
H   -3.5432    1.6154    0.8891
H   -3.5390    1.6196   -0.8908


