%nprocshared=4
%mem=100MW
%chk=FMKMKBLHMONXJM-UHFFFAOYSA-N.chk
#b3lyp/6-31+G(d) opt freq

gas opt

0 1
N   -0.6749    2.3725    0.4911
C   -1.2101    1.1153    0.2268
N   -0.5071   -0.0261   -0.0082
C    0.8891   -0.1473   -0.0270
C    1.4979   -1.2654    0.5270
C    2.8740   -1.3818    0.5070
C    3.6452   -0.3863   -0.0641
C    3.0419    0.7287   -0.6163
C    1.6659    0.8480   -0.6048
N   -1.4283   -1.0584   -0.2273
C   -2.6357   -0.5632   -0.1292
C   -3.9198   -1.3342   -0.2954
C   -2.5333    0.8002    0.1615
H    0.2871    2.4937    0.5205
H   -1.2638    3.1284    0.6420
H    0.8960   -2.0431    0.9735
H    3.3481   -2.2512    0.9381
H    4.7211   -0.4796   -0.0786
H    3.6469    1.5049   -1.0610
H    1.1952    1.7189   -1.0365
H   -4.2335   -1.7302    0.6704
H   -4.6932   -0.6723   -0.6853
H   -3.7616   -2.1578   -0.9917
H   -3.3574    1.4840    0.3023


