%nprocshared=4
%mem=100MW
%chk=FOANIXZHAMJWOI-UHFFFAOYSA-N.chk
#b3lyp/6-31+G(d) opt freq

gas opt

0 1
Br   -5.0887    1.8019   -0.5579
C   -3.5294    0.9057    0.0261
C   -3.2303    0.8454    1.3753
C   -2.0904    0.1903    1.8017
C   -1.2492   -0.4047    0.8801
C   -0.0065   -1.1189    1.3455
O   -0.0053   -1.1918    2.7726
C    0.0171   -2.5120    0.7713
O    0.0333   -3.4691    1.5086
O    0.0201   -2.6896   -0.5592
C    0.0432   -4.0590   -1.0414
C   -0.6768   -4.1374   -2.3891
C    1.4937   -4.5156   -1.2107
C    1.2113   -0.3630    0.8801
C    2.0325    0.2592    1.8018
C    3.1496    0.9525    1.3754
C    3.4460    1.0234    0.0261
Br    4.9746    1.9713   -0.5579
C    2.6243    0.4002   -0.8958
C    1.5101   -0.2969   -0.4680
C   -1.5479   -0.3451   -0.4684
C   -2.6904    0.3053   -0.8953
H   -3.8873    1.3105    2.0954
H   -1.8567    0.1435    2.8551
H   -0.0199   -0.3297    3.2105
H   -0.4597   -4.7059   -0.3225
H   -0.1738   -3.4905   -3.1079
H   -0.6594   -5.1654   -2.7510
H   -1.7101   -3.8121   -2.2684
H    1.9966   -3.8687   -1.9295
H    2.0066   -4.4597   -0.2506
H    1.5111   -5.5435   -1.5727
H    1.8009    0.2038    2.8552
H    3.7906    1.4392    2.0955
H    2.8554    0.4553   -1.9493
H    0.8687   -0.7838   -1.1877
H   -0.8906   -0.8104   -1.1880
H   -2.9236    0.3518   -1.9488


