%nprocshared=4
%mem=100MW
%chk=FOCAUTSVDIKZOP-UHFFFAOYSA-N.chk
#b3lyp/6-31+G(d) opt freq

gas opt

0 1
Cl   -1.7200    0.0419    0.0000
C   -0.1907   -0.9130   -0.0000
C    0.9879    0.0260   -0.0000
O    0.8084    1.2209   -0.0000
O    2.2372   -0.4649   -0.0000
H   -0.1547   -1.5413    0.8900
H   -0.1547   -1.5413   -0.8900
H    2.9609    0.1764    0.0000


