%nprocshared=4
%mem=100MW
%chk=FOIBFBMSLDGNHL-UHFFFAOYSA-N.chk
#b3lyp/6-31+G(d) opt freq

gas opt

0 1
Cl   -5.0819   -1.5587   -0.0041
C   -3.5777   -0.6920   -0.0029
C   -3.5777    0.6920   -0.0021
Cl   -5.0819    1.5587   -0.0023
C   -2.3795    1.3866   -0.0007
Cl   -2.3823    3.1226    0.0014
C   -1.1782    0.6953   -0.0005
O    0.0000    1.3759    0.0004
C    1.1782    0.6953    0.0001
C    2.3796    1.3867    0.0006
Cl    2.3824    3.1226    0.0026
C    3.5777    0.6920   -0.0002
Cl    5.0819    1.5587    0.0010
C    3.5777   -0.6920   -0.0014
Cl    5.0819   -1.5587   -0.0023
C    2.3796   -1.3867   -0.0014
Cl    2.3823   -3.1227   -0.0029
C    1.1782   -0.6953   -0.0011
O   -0.0000   -1.3759   -0.0016
C   -1.1782   -0.6953   -0.0017
C   -2.3796   -1.3867    0.0031
Cl   -2.3824   -3.1226    0.0099


