%nprocshared=4
%mem=100MW
%chk=FPQJEXTVQZHURJ-UHFFFAOYSA-N.chk
#b3lyp/6-31+G(d) opt freq

gas opt

0 1
O    0.4148   -1.6628   -0.2218
C    0.5873   -0.4616   -0.2206
N    1.8385    0.0395   -0.2234
C    2.9902   -0.8659   -0.2279
C    4.2826   -0.0471   -0.2305
O    4.3838    0.6871    0.9913
C   -0.5875    0.4621   -0.2222
O   -0.4150    1.6632   -0.2210
N   -1.8387   -0.0390   -0.2250
C   -2.9904    0.8664   -0.2266
C   -4.2828    0.0476   -0.2296
O   -4.3829   -0.6892    0.9907
H    1.9764    0.9997   -0.2225
H    2.9608   -1.4957    0.6613
H    2.9557   -1.4932   -1.1187
H    5.1372   -0.7174   -0.3234
H    4.2717    0.6464   -1.0713
H    5.1810    1.2301    1.0590
H   -1.9766   -0.9992   -0.2259
H   -2.9602    1.4943    0.6639
H   -2.9567    1.4955   -1.1160
H   -5.1375    0.7180   -0.3204
H   -4.2727   -0.6442   -1.0719
H   -5.1800   -1.2324    1.0580


