%nprocshared=4
%mem=100MW
%chk=FRDAATYAJDYRNW-UHFFFAOYSA-N.chk
#b3lyp/6-31+G(d) opt freq

gas opt

0 1
O   -0.0305    0.7994    1.1837
C    0.0003    0.0128   -0.0090
C   -1.2480    0.3042   -0.8444
C   -2.4974   -0.0468   -0.0341
C    1.2497    0.3638   -0.8193
C    2.4980   -0.0431   -0.0338
C    0.0320   -1.4717    0.3598
H   -0.0517    1.7531    1.0254
H   -1.2706    1.3618   -1.1072
H   -1.2245   -0.2958   -1.7542
H   -2.4748   -1.1044    0.2286
H   -2.5209    0.5532    0.8756
H   -3.3866    0.1608   -0.6293
H    1.2283   -0.1699   -1.7695
H    1.2719    1.4375   -1.0061
H    2.5193    0.4906    0.9164
H    2.4758   -1.1167    0.1530
H    3.3881    0.2070   -0.6111
H   -0.8581   -1.7218    0.9371
H    0.0555   -2.0717   -0.5499
H    0.9212   -1.6793    0.9550


