%nprocshared=4
%mem=100MW
%chk=FRQUNVLMWIYOLV-UHFFFAOYSA-N.chk
#b3lyp/6-31+G(d) opt freq

gas opt

0 1
Cl   -1.7411   -1.6856    0.0016
C   -0.6708   -0.3188    0.0017
C    0.6991   -0.5130    0.0007
Cl    1.3486   -2.1229   -0.0013
C    1.5534    0.5808    0.0007
O    2.8998    0.3927   -0.0007
C    3.7184    1.5640   -0.0006
C    1.0318    1.8660    0.0018
C   -0.3367    2.0560    0.0029
C   -1.1881    0.9654   -0.0029
Cl   -2.9071    1.2076   -0.0016
H    3.5046    2.1569   -0.8899
H    3.5063    2.1554    0.8901
H    4.7689    1.2730   -0.0018
H    1.6954    2.7181    0.0023
H   -0.7422    3.0570    0.0037


