%nprocshared=4
%mem=100MW
%chk=FSCWZHGZWWDELK-UHFFFAOYSA-N.chk
#b3lyp/6-31+G(d) opt freq

gas opt

0 1
Cl    3.2594   -2.7379    0.1409
C    2.4191   -1.2210    0.0587
C    3.1286   -0.0463   -0.1186
C    2.4615    1.1642   -0.1845
Cl    3.3550    2.6359   -0.4070
C    1.0840    1.2025   -0.0738
C    0.3701    0.0254    0.1041
N   -1.0270    0.0617    0.2167
C   -1.8586   -0.8414   -0.3403
O   -1.5523   -1.8046   -1.0098
C   -3.2564   -0.4011    0.0461
C   -4.0683   -0.0788   -1.1819
C   -4.5597    1.1246   -1.3450
C   -3.9495   -1.4816    0.8786
O   -3.0337    0.8009    0.8436
C   -1.7057    0.9942    0.8956
O   -1.1800    1.9159    1.4867
C    1.0411   -1.1882    0.1647
H    4.2047   -0.0743   -0.2053
H    0.5638    2.1475   -0.1253
H   -4.2451   -0.8399   -1.9275
H   -4.3829    1.8857   -0.5995
H   -5.1416    1.3555   -2.2251
H   -3.3739   -1.6665    1.7855
H   -4.9517   -1.1469    1.1462
H   -4.0166   -2.4010    0.2970
H    0.4877   -2.1053    0.3030


