%nprocshared=4
%mem=100MW
%chk=FSERHDPEOFYMMK-UHFFFAOYSA-N.chk
#b3lyp/6-31+G(d) opt freq

gas opt

0 1
Br   -3.0956    0.8559    0.0081
C   -1.6089   -0.3126    0.0215
C   -0.3551    0.1711   -0.2797
C    0.7401   -0.6948   -0.2683
C    2.1716   -0.5282   -0.5309
C    2.8698    0.7512   -0.9137
N    3.0960    1.5643    0.2886
C    4.0444    0.9072    1.1978
C    3.5562    2.9133   -0.0670
C    2.7436   -1.7313   -0.3653
N    1.7956   -2.6548   -0.0182
H    1.9690   -3.5934    0.1546
C    0.5583   -2.0531    0.0499
C   -0.7164   -2.5199    0.3516
C   -1.7865   -1.6525    0.3407
H   -0.2198    1.2144   -0.5238
H    3.8271    0.5174   -1.3795
H    2.2497    1.3071   -1.6170
H    4.9972    0.7647    0.6880
H    4.1937    1.5305    2.0795
H    3.6459   -0.0611    1.5006
H    2.8028    3.4034   -0.6838
H    3.7159    3.4940    0.8415
H    4.4913    2.8435   -0.6227
H    3.7961   -1.9395   -0.4885
H   -0.8668   -3.5608    0.5972
H   -2.7746   -2.0196    0.5756


