%nprocshared=4
%mem=100MW
%chk=FTOVXSOBNPWTSH-UHFFFAOYSA-N.chk
#b3lyp/6-31+G(d) opt freq

gas opt

0 1
C    0.1581   -0.5849    0.0047
C   -1.1178   -1.1402    0.0044
C   -2.2432   -0.2024    0.0017
C   -1.9662    1.1884    0.0029
C   -0.6410    1.6896    0.0055
C    0.4259    0.8417    0.0046
C    1.8989    0.9627    0.0015
C    2.4472   -0.3419    0.0025
C    1.3418   -1.3207   -0.0008
C    1.2145   -2.7036   -0.0015
C   -0.0509   -3.2797   -0.0066
C   -1.2150   -2.5325    0.0061
C    3.8317   -0.4972   -0.0001
C    4.6558    0.6084   -0.0034
C    4.1175    1.8849   -0.0046
C    2.7498    2.0639   -0.0018
C   -3.0461    2.0893   -0.0000
C   -4.3255    1.6215   -0.0043
C   -4.5881    0.2564   -0.0056
C   -3.5645   -0.6480   -0.0028
H   -0.4743    2.7566    0.0082
H    2.0949   -3.3290    0.0015
H   -0.1283   -4.3569   -0.0067
H   -2.1803   -3.0169    0.0012
H    4.2614   -1.4880    0.0007
H    5.7279    0.4783   -0.0046
H    4.7719    2.7441   -0.0074
H    2.3378    3.0622   -0.0031
H   -2.8609    3.1533    0.0014
H   -5.1479    2.3215   -0.0063
H   -5.6103   -0.0920   -0.0087
H   -3.7782   -1.7066   -0.0036


