%nprocshared=4
%mem=100MW
%chk=FULZLIGZKMKICU-UHFFFAOYSA-N.chk
#b3lyp/6-31+G(d) opt freq

gas opt

0 1
S    1.6679    1.2613    0.4419
C    1.8696   -0.3629   -0.0603
N    0.7933   -1.1068   -0.3840
C   -0.4934   -0.5814   -0.2253
C   -0.7766    0.7081   -0.6566
C   -2.0481    1.2237   -0.4989
C   -3.0387    0.4576    0.0875
C   -2.7600   -0.8267    0.5179
C   -1.4919   -1.3501    0.3584
N    3.1050   -0.8960   -0.1373
H    0.9109   -2.0065   -0.7269
H   -0.0033    1.3071   -1.1143
H   -2.2689    2.2265   -0.8337
H   -4.0322    0.8632    0.2099
H   -3.5359   -1.4225    0.9755
H   -1.2750   -2.3533    0.6944
H    3.8799   -0.3594    0.0919
H    3.2193   -1.8163   -0.4218


