%nprocshared=4
%mem=100MW
%chk=FUUHMSUPRUNWRQ-UHFFFAOYSA-N.chk
#b3lyp/6-31+G(d) opt freq

gas opt

0 1
Cl   -0.1867   -2.7160    0.0011
C   -0.1289   -0.9810    0.0016
C    1.0929   -0.3292    0.0008
Cl    2.5658   -1.2479    0.0000
C    1.1409    1.0543    0.0003
Cl    2.6739    1.8689   -0.0011
C   -0.0315    1.7880    0.0005
C   -1.2560    1.1374    0.0017
O   -2.4090    1.8575    0.0018
C   -2.2849    3.2811    0.0008
C   -1.3032   -0.2500   -0.0031
Cl   -2.8350   -1.0670   -0.0017
H    0.0067    2.8673    0.0001
H   -3.2771    3.7324    0.0010
H   -1.7409    3.5991    0.8902
H   -1.7419    3.5978   -0.8898


