%nprocshared=4
%mem=100MW
%chk=FVSKHRXBFJPNKK-UHFFFAOYSA-N.chk
#b3lyp/6-31+G(d) opt freq

gas opt

0 1
N   -1.8034    0.2851   -0.0000
C   -0.7460   -0.1301   -0.0000
C    0.6242   -0.6681    0.0000
C    1.6261    0.4882    0.0000
H    0.7746   -1.2792    0.8900
H    0.7746   -1.2792   -0.8900
H    1.4757    1.0993   -0.8900
H    1.4757    1.0993    0.8900
H    2.6407    0.0898    0.0000


