%nprocshared=4
%mem=100MW
%chk=FZBXGZBXWFNCQY-UHFFFAOYSA-N.chk
#b3lyp/6-31+G(d) opt freq

gas opt

0 1
O   -1.1054   -1.6491    0.5125
C   -1.4233   -0.4793    0.5495
C   -0.3721    0.5920    0.4140
O    0.9313   -0.0268    0.2512
C    1.9875    0.7984    0.1158
O    1.8240    2.0019    0.1332
C    3.3444    0.2396   -0.0539
C    4.4413    1.0920   -0.1945
C    5.7057    0.5635   -0.3521
C    5.8883   -0.8079   -0.3715
C    4.8057   -1.6584   -0.2331
C    3.5366   -1.1433   -0.0686
N   -2.7176   -0.1374    0.7062
C   -3.7024   -1.1889    0.8272
C   -4.2192   -1.5810   -0.5790
C   -5.0671   -0.5119   -1.1281
C   -4.3441    0.8135   -1.3476
C   -4.3442    1.6023   -0.0614
C   -3.0703    1.2951    0.7532
H   -0.5925    1.2093   -0.4569
H   -0.3697    1.2140    1.3091
H    4.3001    2.1627   -0.1803
H    6.5550    1.2217   -0.4610
H    6.8803   -1.2164   -0.4956
H    4.9551   -2.7279   -0.2498
H    2.6924   -1.8082    0.0393
H   -3.2484   -2.0584    1.3026
H   -4.5360   -0.8372    1.4352
H   -3.3702   -1.7449   -1.2426
H   -4.7998   -2.5007   -0.5064
H   -5.4722   -0.8474   -2.0828
H   -5.8984   -0.3434   -0.4435
H   -3.3165    0.6205   -1.6557
H   -4.8559    1.3829   -2.1234
H   -4.3787    2.6674   -0.2905
H   -5.2207    1.3327    0.5279
H   -3.2327    1.5917    1.7894
H   -2.2418    1.8751    0.3465


