%nprocshared=4
%mem=100MW
%chk=GBDZXPJXOMHESU-UHFFFAOYSA-N.chk
#b3lyp/6-31+G(d) opt freq

gas opt

0 1
Cl   -1.5607   -1.8349    0.0015
C   -0.6922   -0.3318    0.0016
C    0.6922   -0.3318    0.0008
Cl    1.5606   -1.8350   -0.0010
C    1.3835    0.8674    0.0009
Cl    3.1195    0.8685   -0.0008
C    0.6910    2.0652    0.0018
C   -0.6910    2.0652    0.0031
C   -1.3835    0.8674   -0.0032
Cl   -3.1195    0.8685   -0.0016
H    1.2307    3.0007    0.0019
H   -1.2307    3.0007    0.0042


