%nprocshared=4
%mem=100MW
%chk=GBROPGWFBFCKAG-UHFFFAOYSA-N.chk
#b3lyp/6-31+G(d) opt freq

gas opt

0 1
C    0.7310   -0.7711   -0.0011
C   -0.7310   -0.7711   -0.0009
C   -1.4058    0.4662   -0.0006
C   -2.8707    0.4637   -0.0002
C   -3.5492   -0.7767   -0.0003
C   -2.8117   -1.9810   -0.0003
C   -1.4599   -1.9748   -0.0006
C   -4.9523   -0.7886    0.0001
C   -5.6386    0.3895    0.0005
C   -4.9676    1.6076    0.0006
C   -3.6032    1.6535    0.0006
C   -0.6787    1.6654   -0.0002
C    0.6787    1.6654   -0.0004
C    1.4058    0.4663   -0.0010
C    2.8707    0.4637   -0.0005
C    3.5492   -0.7767   -0.0007
C    2.8117   -1.9810   -0.0010
C    1.4599   -1.9748    0.0043
C    4.9523   -0.7886   -0.0002
C    5.6386    0.3895    0.0004
C    4.9675    1.6076    0.0006
C    3.6032    1.6535    0.0006
H   -3.3373   -2.9244   -0.0000
H   -0.9276   -2.9144   -0.0005
H   -5.4865   -1.7272   -0.0003
H   -6.7185    0.3766    0.0005
H   -5.5325    2.5281    0.0009
H   -3.0924    2.6051    0.0010
H   -1.2086    2.6064   -0.0001
H    1.2086    2.6064   -0.0009
H    3.3373   -2.9244   -0.0016
H    0.9275   -2.9144    0.0040
H    5.4865   -1.7272   -0.0000
H    6.7185    0.3766    0.0012
H    5.5325    2.5281    0.0015
H    3.0924    2.6051    0.0004


