%nprocshared=4
%mem=100MW
%chk=GCKMFJBGXUYNAG-HLXURNFRSA-N.chk
#b3lyp/6-31+G(d) opt freq

gas opt

0 1
O   -5.5915   -0.1209    1.1542
C   -4.5977   -0.1541    0.4590
C   -3.7997    1.0485    0.1958
C   -2.5326    0.9344   -0.2007
C   -1.8389   -0.3795   -0.3891
C   -1.6181   -0.5877   -1.8887
C   -0.4646   -0.3472    0.2907
H   -0.6038   -0.2520    1.3676
C    0.3271    0.8655   -0.2204
H    0.4270    0.8151   -1.3046
C    1.6981    0.8246    0.4293
H    1.6022    0.8067    1.5150
C    2.4075   -0.4613   -0.0733
C    2.3041   -0.5487   -1.5973
C    3.8609   -0.2425    0.3345
O    4.7382   -0.8679   -0.6042
C    4.1066   -0.7967    1.7393
C    4.0636    1.2931    0.3180
C    2.6732    1.9258   -0.0017
C    1.6949   -1.6416    0.5585
C    0.2689   -1.6527   -0.0021
C   -0.4102    2.1473    0.1780
C   -1.7663    2.2104   -0.4980
C   -2.6160   -1.5712    0.1411
C   -4.1124   -1.4416   -0.1776
H   -4.2395    2.0266    0.3231
H   -1.0030    0.2221   -2.2813
H   -1.1133   -1.5397   -2.0530
H   -2.5805   -0.5938   -2.4003
H    2.7806    0.3237   -2.0444
H    2.8038   -1.4533   -1.9441
H    1.2543   -0.5789   -1.8891
H    5.6767   -0.7621   -0.3964
H    3.8904   -1.8650    1.7514
H    5.1479   -0.6337    2.0172
H    3.4567   -0.2864    2.4501
H    4.4012    1.6365    1.2959
H    4.7908    1.5663   -0.4465
H    2.5724    2.1156   -1.0703
H    2.5261    2.8425    0.5694
H    2.2051   -2.5680    0.2948
H    1.6718   -1.5248    1.6420
H   -0.2872   -2.4702    0.4567
H    0.3116   -1.8140   -1.0793
H   -0.5756    2.1523    1.2554
H    0.1882    3.0138   -0.1032
H   -1.6335    2.2806   -1.5776
H   -2.3142    3.0810   -0.1376
H   -2.2392   -2.4794   -0.3292
H   -2.4671   -1.6420    1.2186
H   -4.6565   -2.2838    0.2499
H   -4.2602   -1.4135   -1.2572


