%nprocshared=4
%mem=100MW
%chk=GCNTZFIIOFTKIY-UHFFFAOYSA-N.chk
#b3lyp/6-31+G(d) opt freq

gas opt

0 1
O    2.2824   -0.0001   -0.0373
C    0.9252   -0.0000   -0.0203
C    0.2111    1.1956   -0.0126
C   -1.1678    1.1534    0.0047
N   -1.8089    0.0000    0.0144
C   -1.1678   -1.1534    0.0076
C    0.2111   -1.1957   -0.0159
H    2.6868    0.0009    0.8411
H    0.7297    2.1430   -0.0198
H   -1.7295    2.0758    0.0108
H   -1.7296   -2.0758    0.0161
H    0.7296   -2.1430   -0.0214


