%nprocshared=4
%mem=100MW
%chk=GCQZFVAHUZIDRP-UHFFFAOYSA-N.chk
#b3lyp/6-31+G(d) opt freq

gas opt

0 1
S   -2.2877   -1.7856   -0.2308
O   -1.7762   -2.0073   -1.5380
O   -3.3947   -2.4996    0.3020
N   -1.0260   -2.0323    0.8130
C    0.1953   -1.3900    0.5966
C    0.8577   -0.7795    1.6540
C    2.0654   -0.1457    1.4366
C    2.6152   -0.1184    0.1680
S    4.1564    0.6908   -0.1047
O    4.1888    1.0385   -1.4821
O    4.3005    1.6424    0.9407
N    5.3485   -0.4362    0.1211
C    1.9584   -0.7252   -0.8868
C    0.7530   -1.3653   -0.6754
C   -2.7094   -0.0770   -0.1447
C   -2.1863    0.8100   -1.0676
C   -2.5148    2.1499   -1.0030
C   -3.3718    2.6061   -0.0095
N   -3.7065    3.9605    0.0585
C   -3.8955    1.7123    0.9160
C   -3.5673    0.3729    0.8422
H   -1.1351   -2.6229    1.5748
H    0.4287   -0.8002    2.6449
H    2.5807    0.3294    2.2582
H    6.1828   -0.3645   -0.3685
H    5.2126   -1.1681    0.7431
H    2.3905   -0.7021   -1.8763
H    0.2407   -1.8393   -1.4996
H   -1.5198    0.4547   -1.8396
H   -2.1057    2.8422   -1.7239
H   -3.3404    4.5836   -0.5885
H   -4.3050    4.2779    0.7527
H   -4.5620    2.0638    1.6897
H   -3.9743   -0.3226    1.5612


