%nprocshared=4
%mem=100MW
%chk=GEDIWDLJKRKBFT-UHFFFAOYSA-N.chk
#b3lyp/6-31+G(d) opt freq

gas opt

0 1
O    2.9226    0.7037    0.0261
C    2.3692   -0.3781    0.0261
O    1.0290   -0.4490   -0.0863
C    0.3470    0.7253   -0.0806
N   -1.0050    0.8699   -0.0568
C   -1.9464   -0.1683   -0.0333
C   -3.1256   -0.0218    0.6849
C   -4.0514   -1.0466    0.7062
C   -3.8046   -2.2177    0.0136
C   -2.6311   -2.3665   -0.7026
C   -1.7043   -1.3429   -0.7327
N   -1.2888    2.2417   -0.0596
C   -0.1565    2.8972   -0.0839
C   -0.0066    4.3967   -0.0953
C    0.8910    1.9709   -0.0917
N    3.0971   -1.5074    0.1329
C    4.5555   -1.4306    0.2490
C    2.4299   -2.8117    0.1329
H   -3.3186    0.8923    1.2266
H   -4.9688   -0.9333    1.2647
H   -4.5296   -3.0179    0.0324
H   -2.4409   -3.2825   -1.2422
H   -0.7881   -1.4596   -1.2925
H    0.0478    4.7642    0.9294
H    0.9058    4.6667   -0.6270
H   -0.8651    4.8438   -0.5966
H    1.9454    2.2039   -0.1103
H    4.8334   -1.3688    1.3011
H    5.0025   -2.3210   -0.1932
H    4.9155   -0.5450   -0.2746
H    1.8815   -2.9392   -0.8004
H    3.1756   -3.6012    0.2269
H    1.7364   -2.8650    0.9721


