%nprocshared=4
%mem=100MW
%chk=GEYOCULIXLDCMW-UHFFFAOYSA-N.chk
#b3lyp/6-31+G(d) opt freq

gas opt

0 1
N    1.7212   -1.3997    0.0012
C    0.5098   -0.6976    0.0010
C    0.5098    0.6976    0.0002
N    1.7212    1.3997   -0.0008
C   -0.6930    1.3866   -0.0000
C   -1.8885    0.6910    0.0006
C   -1.8885   -0.6911    0.0018
C   -0.6930   -1.3867   -0.0042
H    2.5621   -0.9161    0.0009
H    1.7196   -2.3697    0.0058
H    2.5621    0.9161   -0.0010
H    1.7196    2.3697   -0.0014
H   -0.6966    2.4666   -0.0002
H   -2.8247    1.2295    0.0004
H   -2.8247   -1.2295    0.0026
H   -0.6966   -2.4666   -0.0036


