%nprocshared=4
%mem=100MW
%chk=GFBKOADVXIDVBA-UHFFFAOYSA-N.chk
#b3lyp/6-31+G(d) opt freq

gas opt

0 1
S   -2.7109   -0.1211    0.0757
O   -3.6392   -1.1946    0.0047
O   -2.6887    0.8180    1.1419
N   -1.2026   -0.8027    0.0215
C   -0.1072   -0.0178    0.0417
O   -0.2263    1.1901    0.0998
O    1.1190   -0.5720   -0.0023
C    2.2532    0.3342    0.0230
C    3.5520   -0.4726   -0.0339
C    4.7471    0.4822   -0.0072
C    6.0459   -0.3246   -0.0641
N   -2.9028    0.7558   -1.3159
H   -1.1076   -1.7670   -0.0249
H    2.2031    1.0031   -0.8361
H    2.2296    0.9203    0.9417
H    3.6021   -1.1416    0.8252
H    3.5756   -1.0587   -0.9526
H    4.6970    1.1512   -0.8663
H    4.7235    1.0683    0.9115
H    6.0960   -0.9935    0.7950
H    6.0695   -0.9107   -0.9828
H    6.8973    0.3557   -0.0451
H   -2.6395    1.6891   -1.3412
H   -3.2784    0.3363   -2.1057


