%nprocshared=4
%mem=100MW
%chk=GGLIEWRLXDLBBF-UHFFFAOYSA-N.chk
#b3lyp/6-31+G(d) opt freq

gas opt

0 1
O   -2.7424   -1.3727   -0.5948
C   -3.2658   -0.3994   -0.0878
N   -2.5131    0.6577    0.2759
C   -1.1169    0.5922    0.1733
C   -0.3889    1.7335   -0.1352
C    0.9869    1.6683   -0.2357
C    1.6415    0.4630   -0.0285
O    2.9961    0.3996   -0.1275
C    3.6042   -0.8737    0.0983
C    5.1213   -0.7488   -0.0552
C    0.9147   -0.6775    0.2803
C   -0.4607   -0.6126    0.3858
N   -4.5995   -0.3753    0.1053
H   -2.9376    1.4639    0.6087
H   -0.8985    2.6719   -0.2970
H    1.5532    2.5560   -0.4761
H    3.3679   -1.2155    1.1060
H    3.2235   -1.5921   -0.6276
H    5.3576   -0.4069   -1.0629
H    5.5021   -0.0304    0.6708
H    5.5852   -1.7200    0.1171
H    1.4250   -1.6156    0.4415
H   -1.0263   -1.5006    0.6265
H   -5.1417   -1.1345   -0.1601
H   -5.0170    0.4012    0.5098


