%nprocshared=4
%mem=100MW
%chk=GILNGPKTMRSQDW-UHFFFAOYSA-N.chk
#b3lyp/6-31+G(d) opt freq

gas opt

0 1
O   -1.5630   -1.7150    0.0128
C   -1.9034   -0.5517    0.0549
C   -0.8623    0.5378    0.0718
O    0.4616   -0.0571    0.0313
C    1.5117    0.7866    0.0404
O    1.3265    1.9864    0.0810
C    2.8886    0.2527    0.0009
C    3.9793    1.1243    0.0102
C    5.2623    0.6190   -0.0263
C    5.4697   -0.7483   -0.0725
C    4.3933   -1.6177   -0.0824
C    3.1051   -1.1261   -0.0400
N   -3.2127   -0.2332    0.0808
C   -4.3280   -1.1909    0.0628
C   -5.6357   -0.3716    0.0788
C   -5.1869    1.0100   -0.4662
C   -3.7636    1.1330    0.1385
H   -0.9975    1.1829   -0.7963
H   -0.9681    1.1273    0.9825
H    3.8188    2.1918    0.0456
H    6.1069    1.2921   -0.0192
H    6.4762   -1.1386   -0.1013
H    4.5622   -2.6838   -0.1193
H    2.2659   -1.8058   -0.0478
H   -4.2815   -1.7972   -0.8418
H   -4.2810   -1.8313    0.9436
H   -6.3807   -0.8215   -0.5774
H   -6.0204   -0.2790    1.0945
H   -5.1534    1.0081   -1.5557
H   -5.8358    1.8048   -0.0982
H   -3.8183    1.4825    1.1695
H   -3.1541    1.8097   -0.4605


