%nprocshared=4
%mem=100MW
%chk=GKRZNOGGALENQJ-UHFFFAOYSA-N.chk
#b3lyp/6-31+G(d) opt freq

gas opt

0 1
O   -1.1848   -1.1513    0.0008
C   -1.1650    0.0639    0.0020
N    0.0131    0.7186    0.0016
C    1.1691    0.0258   -0.0001
O    1.1493   -1.1864   -0.0012
C    2.4864    0.7578   -0.0005
N   -2.3210    0.7568   -0.0020
H    0.0289    1.6885    0.0025
H    2.3047    1.8326    0.0007
H    3.0543    0.4843    0.8888
H    3.0528    0.4861   -0.8912
H   -3.1688    0.2855   -0.0057
H   -2.3051    1.7266   -0.0010


