%nprocshared=4
%mem=100MW
%chk=GUGOEEXESWIERI-UHFFFAOYSA-N.chk
#b3lyp/6-31+G(d) opt freq

gas opt

0 1
O    4.8310   -0.0904    1.9640
C    4.8475   -0.0425    0.5359
C    5.2922    1.3247    0.0842
C    6.1609    2.0624    0.8665
C    6.5688    3.3165    0.4522
C    6.1083    3.8328   -0.7446
C    5.2403    3.0947   -1.5273
C    4.8358    1.8388   -1.1151
C    5.8040   -1.0813    0.0094
C    6.9074   -1.4471    0.7574
C    7.7848   -2.3998    0.2744
C    7.5585   -2.9872   -0.9563
C    6.4545   -2.6221   -1.7039
C    5.5748   -1.6724   -1.2190
C    3.4425   -0.3247   -0.0000
C    2.9894   -1.7137    0.4582
C    1.5608   -1.9656   -0.0293
N    0.6675   -0.9352    0.5155
C   -0.7338   -1.2234    0.1820
C   -1.6025   -0.0168    0.5429
C   -3.0620   -0.3170    0.1955
C   -3.9307    0.8897    0.5565
O   -3.5674    2.0010   -0.2652
C   -5.3813    0.5501    0.3295
C   -6.1831    0.1940    1.3978
C   -7.5137   -0.1175    1.1896
C   -8.0427   -0.0724   -0.0868
C   -9.4931   -0.4125   -0.3138
C  -10.3738    0.5501    0.4855
C   -9.8197   -0.2853   -1.8031
C   -9.7585   -1.8475    0.1458
C   -7.2412    0.2850   -1.1548
C   -5.9115    0.6003   -0.9461
C    1.0546    0.4029    0.0507
C    2.4681    0.7255    0.5406
H    4.2354    0.5527    2.3723
H    6.5207    1.6590    1.8016
H    7.2470    3.8932    1.0638
H    6.4265    4.8129   -1.0679
H    4.8803    3.4982   -2.4622
H    4.1576    1.2621   -1.7266
H    7.0842   -0.9882    1.7189
H    8.6473   -2.6851    0.8585
H    8.2444   -3.7311   -1.3339
H    6.2779   -3.0807   -2.6656
H    4.7123   -1.3871   -1.8030
H    3.4536   -0.2862   -1.0893
H    3.6548   -2.4695    0.0411
H    3.0168   -1.7647    1.5467
H    1.5368   -1.9281   -1.1184
H    1.2300   -2.9480    0.3075
H   -0.8189   -1.4260   -0.8856
H   -1.0695   -2.0943    0.7450
H   -1.5174    0.1859    1.6105
H   -1.2667    0.8541   -0.0201
H   -3.1471   -0.5196   -0.8721
H   -3.3978   -1.1878    0.7586
H   -3.7775    1.1472    1.6045
H   -3.6786    1.8425   -1.2126
H   -5.7699    0.1587    2.3950
H   -8.1400   -0.3965    2.0241
H  -10.1847    1.5724    0.1580
H  -11.4229    0.3041    0.3213
H  -10.1411    0.4595    1.5465
H   -9.1923   -0.9711   -2.3725
H  -10.8688   -0.5313   -1.9673
H   -9.6307    0.7370   -2.1305
H   -9.5258   -1.9381    1.2068
H  -10.8076   -2.0935   -0.0184
H   -9.1311   -2.5333   -0.4236
H   -7.6545    0.3206   -2.1520
H   -5.2854    0.8795   -1.7806
H    1.0330    0.4293   -1.0388
H    0.3562    1.1407    0.4456
H    2.4873    0.7129    1.6303
H    2.7611    1.7123    0.1823


