%nprocshared=4
%mem=100MW
%chk=GWOFUCIGLDBNKM-UHFFFAOYSA-N.chk
#b3lyp/6-31+G(d) opt freq

gas opt

0 1
Cl   -6.2003   -2.0319   -0.5807
C   -4.7328   -1.1408   -0.3237
C   -4.1370   -1.1682    0.9017
C   -2.9490   -0.4494    1.1155
N   -2.3434   -0.4586    2.3087
C   -1.2334    0.2084    2.5235
C   -0.6255    0.9600    1.5270
C   -1.1958    1.0165    0.2651
N   -0.6119    1.7586   -0.7517
C    0.5126    2.5317   -0.4899
C    1.7752    1.9266   -0.3792
C    1.9153    0.4689   -0.5399
O    0.9595   -0.1994   -0.8815
O    3.1034   -0.1234   -0.3080
C    3.1681   -1.5630   -0.4860
C    4.5853   -2.0515   -0.1799
O    4.8785   -1.8278    1.2007
C    4.6868   -3.5469   -0.4870
O    6.0379   -3.9784   -0.3126
C    2.8977    2.7162   -0.1161
C    2.7598    4.0790    0.0326
C    1.5125    4.6729   -0.0772
C    0.3949    3.9078   -0.3420
C   -2.3925    0.2930    0.0463
C   -3.0305    0.2994   -1.2015
C   -4.1789   -0.4130   -1.3751
H   -4.5766   -1.7400    1.7056
H   -0.7804    0.1717    3.5032
H    0.2875    1.4984    1.7343
H   -0.9888    1.7376   -1.6453
H    2.4634   -2.0449    0.1916
H    2.9118   -1.8137   -1.5154
H    5.2991   -1.5048   -0.7962
H    4.2815   -2.2850    1.8086
H    4.0379   -4.1018    0.1906
H    4.3774   -3.7283   -1.5163
H    6.1766   -4.9187   -0.4908
H    3.8721    2.2587   -0.0292
H    3.6284    4.6877    0.2362
H    1.4151    5.7420    0.0410
H   -0.5735    4.3785   -0.4264
H   -2.6122    0.8634   -2.0222
H   -4.6698   -0.4078   -2.3371


