%nprocshared=4
%mem=100MW
%chk=GWUSZQUVEVMBPI-UHFFFAOYSA-N.chk
#b3lyp/6-31+G(d) opt freq

gas opt

0 1
O    3.9350    0.8308   -0.7333
N    3.2959    1.7968   -0.3565
O    3.8584    2.8583   -0.1556
C    1.8349    1.6823   -0.1485
C    1.1991    0.4845   -0.3810
C   -0.1851    0.3629   -0.1870
C   -0.7995   -0.9460   -0.4586
N   -1.9326   -1.1198   -1.0412
C   -2.7466    0.0059   -1.4979
C   -3.1689    0.8177   -0.3039
O   -4.3487    0.9062   -0.0371
N   -2.2813    1.4412    0.4677
C   -2.7901    2.1532    1.6426
C   -0.9131    1.4696    0.2461
C   -0.2511    2.6769    0.4765
C    1.1097    2.7793    0.2854
C   -0.0572   -2.1540   -0.0291
C    0.8808   -2.0705    0.9997
C    1.5687   -3.1992    1.3956
C    1.3299   -4.4118    0.7739
C    0.4008   -4.5010   -0.2472
C   -0.2976   -3.3805   -0.6480
H    1.7701   -0.3688   -0.7158
H   -2.1615    0.6288   -2.1744
H   -3.6298   -0.3686   -2.0155
H   -3.8738    2.0468    1.6908
H   -2.3432    1.7331    2.5437
H   -2.5317    3.2095    1.5674
H   -0.8106    3.5380    0.8114
H    1.6104    3.7188    0.4671
H    1.0685   -1.1243    1.4853
H    2.2953   -3.1358    2.1921
H    1.8714   -5.2924    1.0868
H    0.2187   -5.4504   -0.7287
H   -1.0230   -3.4514   -1.4450


