%nprocshared=4
%mem=100MW
%chk=GXEKYRXVRROBEV-UHFFFAOYSA-N.chk
#b3lyp/6-31+G(d) opt freq

gas opt

0 1
O    1.1616    1.5055    1.1658
C    1.1016    1.3100   -0.0251
O    2.1668    1.5639   -0.8013
C   -0.1670    0.7751   -0.6379
C   -0.1662   -0.7749   -0.6373
C    1.1031   -1.3078   -0.0240
O    1.1629   -1.5032    1.1668
O    2.1671   -1.5655   -0.8007
C   -1.3971   -1.1201    0.2536
O   -1.3893    0.0002    1.1981
C   -1.3983    1.1197    0.2527
C   -2.6447    0.7738   -0.6161
C   -2.6439   -0.7762   -0.6154
H    2.9593    1.9021   -0.3624
H   -0.2981    1.1608   -1.6490
H   -0.2969   -1.1615   -1.6480
H    2.9586   -1.9061   -0.3620
H   -1.3867   -2.1144    0.7000
H   -1.3890    2.1144    0.6983
H   -3.5547    1.1597   -0.1566
H   -2.5286    1.1596   -1.6289
H   -2.5274   -1.1627   -1.6279
H   -3.5535   -1.1627   -0.1557


