%nprocshared=4
%mem=100MW
%chk=GYMFBYTZOGMSQJ-UHFFFAOYSA-N.chk
#b3lyp/6-31+G(d) opt freq

gas opt

0 1
C    4.6421    0.9406    0.0002
C    3.2694    0.3187    0.0006
C    2.1778    1.1261    0.0007
C    0.8881    0.5533    0.0010
C    0.7663   -0.9083    0.0013
C   -0.4924   -1.5071    0.0012
C   -1.6341   -0.7083    0.0007
C   -1.5123    0.7533    0.0003
C   -0.2542    1.3522    0.0005
C   -2.6900    1.5318   -0.0007
C   -3.8997    0.9163   -0.0014
C   -4.0156   -0.4743   -0.0005
C   -2.9242   -1.2814    0.0001
C    1.9433   -1.6868    0.0012
C    3.1536   -1.0714   -0.0049
H    4.9733    1.0907    1.0278
H    5.3403    0.2798   -0.5136
H    4.6057    1.9011   -0.5137
H    2.2958    2.1996    0.0009
H   -0.5822   -2.5834    0.0011
H   -0.1646    2.4285    0.0006
H   -2.6287    2.6101   -0.0007
H   -4.7962    1.5186   -0.0022
H   -4.9993   -0.9200   -0.0006
H   -3.0421   -2.3549    0.0008
H    1.8818   -2.7651    0.0017
H    4.0499   -1.6738   -0.0049


