%nprocshared=4
%mem=100MW
%chk=HEZNVIYQEUHLNI-UHFFFAOYSA-N.chk
#b3lyp/6-31+G(d) opt freq

gas opt

0 1
S   -2.3874   -0.3269   -0.2917
C   -3.5737    0.8470    0.4191
C   -4.8327    0.8886   -0.4493
C   -0.9865   -0.2376    0.8572
C    0.1017   -1.1727    0.3963
C    1.0846   -0.7198   -0.4720
O    1.0676    0.5678   -0.9075
C    1.6350    1.4912   -0.1080
O    2.2256    1.1452    0.8960
N    1.5477    2.7991   -0.4215
C    2.1648    3.8036    0.4482
C    2.0847   -1.5829   -0.8944
C    2.1001   -2.8910   -0.4500
C    1.1193   -3.3400    0.4147
C    0.1246   -2.4797    0.8422
H   -3.8384    0.5302    1.4279
H   -3.1248    1.8397    0.4560
H   -4.5680    1.2055   -1.4581
H   -5.2815   -0.1040   -0.4862
H   -5.5455    1.5941   -0.0222
H   -0.6024    0.7822    0.8832
H   -1.3159   -0.5272    1.8551
H    1.0762    3.0753   -1.2229
H    1.9911    4.7974    0.0357
H    1.7254    3.7415    1.4438
H    3.2372    3.6192    0.5123
H    2.8507   -1.2328   -1.5706
H    2.8786   -3.5635   -0.7787
H    1.1328   -4.3630    0.7608
H   -0.6405   -2.8328    1.5178


