%nprocshared=4
%mem=100MW
%chk=HFHZKZSRXITVMK-UHFFFAOYSA-N.chk
#b3lyp/6-31+G(d) opt freq

gas opt

0 1
O   -0.5867   -2.8975    0.4923
C   -0.7637   -1.6978    0.5143
N    0.1623   -0.7413    0.3131
N   -0.3866    0.5344    0.4095
C    0.3420    1.7176    0.2452
C   -0.1301    2.7140   -0.5991
C    0.5912    3.8809   -0.7588
C    1.7825    4.0576   -0.0793
C    2.2554    3.0674    0.7621
C    1.5360    1.9005    0.9305
C   -1.7048    0.4897    0.6795
O   -2.4509    1.4356    0.8197
C   -2.0719   -0.9773    0.7669
C   -3.1056   -1.3362   -0.3025
C   -4.4217   -0.6163   -0.0016
C   -5.4554   -0.9753   -1.0710
C   -6.7715   -0.2554   -0.7701
C    1.5125   -0.9983    0.0411
C    2.2242   -1.8869    0.8359
C    3.5548   -2.1401    0.5670
C    4.1805   -1.5065   -0.4968
O    5.4908   -1.7560   -0.7608
C    3.4699   -0.6190   -1.2916
C    2.1378   -0.3689   -1.0269
H   -1.0602    2.5764   -1.1306
H    0.2245    4.6562   -1.4152
H    2.3451    4.9707   -0.2064
H    3.1862    3.2083    1.2914
H    1.9058    1.1275    1.5878
H   -2.4492   -1.2183    1.7607
H   -2.7381   -1.0275   -1.2812
H   -3.2719   -2.4134   -0.3001
H   -4.7892   -0.9251    0.9770
H   -4.2554    0.4609   -0.0041
H   -5.0879   -0.6665   -2.0497
H   -5.6216   -2.0525   -1.0686
H   -7.1390   -0.5641    0.2085
H   -6.6052    0.8218   -0.7725
H   -7.5079   -0.5111   -1.5320
H    1.7374   -2.3796    1.6645
H    4.1085   -2.8312    1.1851
H    5.6359   -2.4925   -1.3704
H    3.9575   -0.1264   -2.1198
H    1.5847    0.3221   -1.6458


