%nprocshared=4
%mem=100MW
%chk=HHOSMYBYIHNXNO-UHFFFAOYSA-N.chk
#b3lyp/6-31+G(d) opt freq

gas opt

0 1
C    1.7049   -0.0003   -0.0025
C    0.3311   -0.4447   -0.5084
C   -0.7511    0.4452    0.1063
C   -2.1250    0.0008   -0.3997
C   -2.4240   -1.4105    0.1098
C   -3.1947    0.9661    0.1150
C    1.7505   -0.1210    1.5221
C    2.7871   -0.8903   -0.6171
C    1.9510    1.4547   -0.4065
H    0.2986   -0.3587   -1.5945
H    0.1558   -1.4813   -0.2206
H   -0.7186    0.3592    1.1924
H   -0.5758    1.4818   -0.1816
H   -2.1286    0.0020   -1.4897
H   -1.6619   -2.0982   -0.2568
H   -2.4204   -1.4117    1.1998
H   -3.4028   -1.7271   -0.2506
H   -2.9816    1.9716   -0.2480
H   -4.1734    0.6495   -0.2455
H   -3.1910    0.9649    1.2050
H    1.5752   -1.1576    1.8099
H    2.7293    0.1956    1.8825
H    0.9796    0.5130    1.9600
H    2.7546   -0.8043   -1.7032
H    3.7658   -0.5737   -0.2567
H    2.6118   -1.9269   -0.3293
H    1.1800    2.0887    0.0314
H    2.9297    1.7713   -0.0460
H    1.9185    1.5407   -1.4926


