%nprocshared=4
%mem=100MW
%chk=HJUFTIJOISQSKQ-UHFFFAOYSA-N.chk
#b3lyp/6-31+G(d) opt freq

gas opt

0 1
O    5.9607   -0.6871   -0.9048
C    5.2662   -0.0048   -0.1778
O    5.7515    1.1415    0.3352
C    7.1122    1.4999   -0.0228
C    7.4850    2.8227    0.6496
N    4.0080   -0.3926    0.1105
C    3.4779   -1.6369   -0.4525
C    2.0398   -1.8421    0.0279
O    1.2093   -0.8050   -0.4982
C   -0.1083   -0.8402   -0.1643
C   -0.9708    0.1361   -0.6406
C   -2.3092    0.1005   -0.3015
C   -2.7910   -0.9118    0.5156
O   -4.1086   -0.9473    0.8491
C   -4.9192    0.0222    0.3500
C   -5.5588   -0.1650   -0.8671
C   -6.3824    0.8222   -1.3722
C   -6.5697    1.9963   -0.6662
C   -5.9336    2.1854    0.5468
C   -5.1135    1.1990    1.0592
C   -1.9283   -1.8883    0.9920
C   -0.5910   -1.8556    0.6481
H    7.7938    0.7177    0.3115
H    7.1867    1.6086   -1.1048
H    8.5065    3.0917    0.3808
H    6.8034    3.6049    0.3153
H    7.4106    2.7140    1.7316
H    3.4536    0.1520    0.6909
H    3.4925   -1.5784   -1.5409
H    4.0933   -2.4749   -0.1254
H    1.6758   -2.8096   -0.3178
H    2.0128   -1.8118    1.1171
H   -0.5957    0.9244   -1.2765
H   -2.9807    0.8609   -0.6721
H   -5.4126   -1.0817   -1.4191
H   -6.8802    0.6771   -2.3196
H   -7.2138    2.7670   -1.0631
H   -6.0816    3.1033    1.0963
H   -4.6171    1.3471    2.0069
H   -2.3032   -2.6764    1.6281
H    0.0806   -2.6159    1.0186


