%nprocshared=4
%mem=100MW
%chk=HKMTVMBEALTRRR-UHFFFAOYSA-N.chk
#b3lyp/6-31+G(d) opt freq

gas opt

0 1
C   -1.6606    0.3977    0.0010
C   -2.3273   -0.8542    0.0004
C   -1.5718   -2.0397   -0.0004
C   -0.2160   -1.9832   -0.0002
C    0.4602   -0.7477    0.0003
C    1.9130   -0.4411    0.0002
C    2.0960    0.9392    0.0006
C    3.3667    1.4726    0.0005
C    4.4689    0.6353   -0.0003
C    4.2975   -0.7371   -0.0006
C    3.0290   -1.2796   -0.0005
C    0.7270    1.5735    0.0009
C   -0.2593    0.4315    0.0007
C   -3.7318   -0.8858    0.0002
C   -4.4326    0.2812    0.0006
C   -3.7780    1.5116    0.0007
C   -2.4190    1.5821   -0.0040
H   -2.0713   -2.9972   -0.0008
H    0.3539   -2.9006   -0.0001
H    3.5026    2.5440    0.0008
H    5.4643    1.0543   -0.0010
H    5.1603   -1.3868   -0.0012
H    2.8995   -2.3518   -0.0004
H    0.5957    2.1830    0.8950
H    0.5955    2.1835   -0.8928
H   -4.2531   -1.8317   -0.0006
H   -5.5122    0.2532    0.0005
H   -4.3579    2.4227    0.0003
H   -1.9253    2.5426   -0.0035


