%nprocshared=4
%mem=100MW
%chk=HMIBKHHNXANVHR-UHFFFAOYSA-N.chk
#b3lyp/6-31+G(d) opt freq

gas opt

0 1
S   -3.1252   -0.7714   -0.0003
C   -4.4982    0.3329    0.0001
O   -4.3120    1.5347    0.0004
N   -5.7548   -0.1544   -0.0000
C   -6.8965    0.7637    0.0003
C   -5.9791   -1.6021   -0.0004
C   -1.7632    0.4207   -0.0000
C   -0.4294   -0.3289   -0.0003
C    0.7220    0.6788   -0.0001
C    2.0558   -0.0708   -0.0004
O    3.1311    0.8704   -0.0001
C    4.3928    0.3655   -0.0004
C    5.4840    1.2223   -0.0002
C    6.7656    0.7066   -0.0004
C    6.9613   -0.6621   -0.0009
C    5.8755   -1.5181   -0.0016
C    4.5919   -1.0074    0.0049
H   -7.1796    0.9918   -1.0273
H   -7.7373    0.2978    0.5141
H   -6.6218    1.6848    0.5144
H   -5.0192   -2.1185   -0.0006
H   -6.5425   -1.8827    0.8895
H   -6.5426   -1.8822   -0.8905
H   -1.8282    1.0469   -0.8898
H   -1.8281    1.0464    0.8901
H   -0.3643   -0.9551    0.8895
H   -0.3644   -0.9545   -0.8905
H    0.6569    1.3050   -0.8899
H    0.6570    1.3045    0.8901
H    2.1208   -0.6970    0.8894
H    2.1207   -0.6965   -0.8905
H    5.3316    2.2915   -0.0002
H    7.6154    1.3732   -0.0006
H    7.9640   -1.0633   -0.0011
H    6.0309   -2.5869   -0.0026
H    3.7440   -1.6764    0.0045


