%nprocshared=4
%mem=100MW
%chk=HMSWAIKSFDFLKN-UHFFFAOYSA-N.chk
#b3lyp/6-31+G(d) opt freq

gas opt

0 1
C    0.6262   -0.4395    0.0000
C   -0.6262    0.4395    0.0000
C   -1.8723   -0.4483    0.0000
C   -3.1246    0.4306   -0.0000
C   -4.3707   -0.4572    0.0000
C   -5.6231    0.4217   -0.0000
C   -6.8692   -0.4660    0.0000
C   -8.1216    0.4129   -0.0000
C   -9.3677   -0.4749    0.0000
C  -10.6200    0.4040   -0.0000
C  -11.8661   -0.4837    0.0000
C  -13.1185    0.3952   -0.0000
C  -14.3646   -0.4926    0.0000
C  -15.6170    0.3863   -0.0000
C    1.8723    0.4483    0.0000
C    3.1246   -0.4306   -0.0000
C    4.3707    0.4572    0.0000
C    5.6231   -0.4217   -0.0000
C    6.8692    0.4660    0.0000
C    8.1216   -0.4129   -0.0000
C    9.3677    0.4749    0.0000
C   10.6200   -0.4040   -0.0000
C   11.8661    0.4837    0.0000
C   13.1185   -0.3952   -0.0000
C   14.3646    0.4926    0.0000
C   15.6170   -0.3863   -0.0000
H    0.6284   -1.0688    0.8900
H    0.6284   -1.0688   -0.8900
H   -0.6284    1.0688    0.8900
H   -0.6284    1.0688   -0.8900
H   -1.8701   -1.0776   -0.8900
H   -1.8701   -1.0776    0.8900
H   -3.1269    1.0599    0.8900
H   -3.1269    1.0599   -0.8900
H   -4.3685   -1.0865   -0.8900
H   -4.3685   -1.0865    0.8900
H   -5.6253    1.0511    0.8900
H   -5.6253    1.0511   -0.8900
H   -6.8670   -1.0953   -0.8900
H   -6.8670   -1.0953    0.8900
H   -8.1238    1.0422    0.8900
H   -8.1238    1.0422   -0.8900
H   -9.3654   -1.1042   -0.8900
H   -9.3654   -1.1042    0.8900
H  -10.6223    1.0333    0.8900
H  -10.6223    1.0333   -0.8900
H  -11.8639   -1.1130   -0.8900
H  -11.8639   -1.1130    0.8900
H  -13.1207    1.0245    0.8900
H  -13.1207    1.0245   -0.8900
H  -14.3624   -1.1219   -0.8900
H  -14.3624   -1.1219    0.8900
H  -16.5047   -0.2461    0.0000
H  -15.6192    1.0156    0.8900
H  -15.6192    1.0156   -0.8900
H    1.8701    1.0776   -0.8900
H    1.8701    1.0776    0.8900
H    3.1269   -1.0599    0.8900
H    3.1269   -1.0599   -0.8900
H    4.3685    1.0865   -0.8900
H    4.3685    1.0865    0.8900
H    5.6253   -1.0511    0.8900
H    5.6253   -1.0511   -0.8900
H    6.8670    1.0953   -0.8900
H    6.8670    1.0953    0.8900
H    8.1238   -1.0422    0.8900
H    8.1238   -1.0422   -0.8900
H    9.3654    1.1042   -0.8900
H    9.3654    1.1042    0.8900
H   10.6223   -1.0333    0.8900
H   10.6223   -1.0333   -0.8900
H   11.8639    1.1130   -0.8900
H   11.8639    1.1130    0.8900
H   13.1207   -1.0245    0.8900
H   13.1207   -1.0245   -0.8900
H   14.3624    1.1219   -0.8900
H   14.3624    1.1219    0.8900
H   16.5047    0.2461    0.0000
H   15.6192   -1.0156    0.8900
H   15.6192   -1.0156   -0.8900


