%nprocshared=4
%mem=100MW
%chk=HNJBEVLQSNELDL-UHFFFAOYSA-N.chk
#b3lyp/6-31+G(d) opt freq

gas opt

0 1
O   -2.0121   -0.0541   -0.0635
C   -0.8024   -0.0147    0.0139
N   -0.0652    1.1089   -0.0161
C    1.3663    0.8109    0.1104
C    1.5032   -0.6951   -0.2055
C    0.0960   -1.2225    0.1649
H   -0.4322    2.0019   -0.1097
H    1.9389    1.4001   -0.6059
H    1.7060    1.0157    1.1256
H    1.7176   -0.8541   -1.2623
H    2.2674   -1.1569    0.4198
H    0.0836   -1.5878    1.1918
H   -0.2102   -2.0093   -0.5246


