%nprocshared=4
%mem=100MW
%chk=HOQADATXFBOEGG-UHFFFAOYSA-N.chk
#b3lyp/6-31+G(d) opt freq

gas opt

0 1
S    0.5795    1.1822   -1.1287
P    1.3714    0.3826    0.3567
O    2.3125    1.4535    1.1048
C    3.5873    1.8560    0.5998
C    4.1502    2.9792    1.4729
O    0.2257   -0.1239    1.3682
C   -0.4171   -1.2452    0.9567
C   -1.7214   -1.1631    0.4483
C   -2.4012    0.1417    0.3580
O   -1.8314    1.1503    0.7248
O   -3.6545    0.2160   -0.1312
C   -4.2619    1.5335   -0.1908
C   -3.9455    2.1803   -1.5408
C   -5.7779    1.4040   -0.0301
C   -2.3726   -2.3255    0.0273
C   -1.7312   -3.5421    0.1140
C   -0.4430   -3.6188    0.6173
C    0.2146   -2.4773    1.0316
N    2.3003   -0.9295   -0.1410
C    3.2275   -0.5419   -1.2126
C    4.5498   -1.2916   -1.0388
C    2.6152   -0.8955   -2.5694
H    4.2696    1.0061    0.6166
H    3.4763    2.2127   -0.4242
H    3.4679    3.8291    1.4562
H    4.2611    2.6225    2.4969
H    5.1225    3.2863    1.0878
H   -3.8631    2.1541    0.6117
H   -4.4014    3.1694   -1.5856
H   -2.8655    2.2726   -1.6553
H   -4.3442    1.5598   -2.3433
H   -6.0033    0.9433    0.9317
H   -6.2338    2.3931   -0.0749
H   -6.1766    0.7835   -0.8326
H   -3.3773   -2.2706   -0.3651
H   -2.2354   -4.4399   -0.2116
H    0.0518   -4.5766    0.6819
H    1.2191   -2.5455    1.4226
H    2.7970   -1.3369    0.6371
H    3.4095    0.5317   -1.1648
H    4.3823   -2.3601   -1.1741
H    5.2672   -0.9395   -1.7801
H    4.9421   -1.1092   -0.0383
H    1.7222   -0.2925   -2.7333
H    3.3397   -0.6940   -3.3585
H    2.3477   -1.9521   -2.5830


