%nprocshared=4
%mem=100MW
%chk=HPQURZRDYMUHJI-UHFFFAOYSA-N.chk
#b3lyp/6-31+G(d) opt freq

gas opt

0 1
C    2.4136   -0.3755    0.2188
C    1.1128    0.1317   -0.4069
C   -0.0518   -0.7464    0.0552
C   -1.3526   -0.2391   -0.5705
C   -2.5126   -1.1858   -0.2153
C   -3.5407   -0.3471    0.5716
C   -3.2606    1.1105    0.1287
C   -1.7164    1.1418    0.0130
C    3.5781    0.5026   -0.2434
C    4.8789   -0.0046    0.3823
H    2.3351   -0.3327    1.3051
H    2.5891   -1.4053   -0.0925
H    0.9372    1.1615   -0.0957
H    1.1913    0.0889   -1.4933
H    0.1237   -1.7761   -0.2561
H   -0.1303   -0.7036    1.1416
H   -1.2442   -0.1711   -1.6530
H   -2.9677   -1.5765   -1.1255
H   -2.1488   -2.0066    0.4028
H   -4.5562   -0.6388    0.3036
H   -3.3818   -0.4570    1.6443
H   -3.7245    1.3170   -0.8358
H   -3.6058    1.8167    0.8837
H   -1.2628    1.2723    0.9955
H   -1.4005    1.9367   -0.6627
H    3.6567    0.4598   -1.3297
H    3.4026    1.5323    0.0679
H    4.8004    0.0382    1.4687
H    5.0545   -1.0344    0.0711
H    5.7086    0.6209    0.0531


