%nprocshared=4
%mem=100MW
%chk=HPXRVTGHNJAIIH-UHFFFAOYSA-N.chk
#b3lyp/6-31+G(d) opt freq

gas opt

0 1
O    2.3408   -0.0552    0.0921
C    0.9754   -0.0268   -0.3288
C    0.2505   -1.2627    0.2078
C   -1.2113   -1.2322   -0.2428
C   -1.8857    0.0299    0.2987
C   -1.1608    1.2657   -0.2379
C    0.3010    1.2353    0.2127
H    2.8621    0.7000   -0.2127
H    0.9309   -0.0238   -1.4179
H    0.7309   -2.1618   -0.1780
H    0.2950   -1.2657    1.2969
H   -1.2558   -1.2292   -1.3319
H   -1.7278   -2.1127    0.1395
H   -2.9272    0.0516   -0.0223
H   -1.8412    0.0268    1.3878
H   -1.2053    1.2688   -1.3270
H   -1.6413    2.1649    0.1479
H    0.3455    1.2323    1.3018
H    0.8175    2.1158   -0.1696


