%nprocshared=4
%mem=100MW
%chk=HPYNZHMRTTWQTB-UHFFFAOYSA-N.chk
#b3lyp/6-31+G(d) opt freq

gas opt

0 1
C    1.7751   -1.4606    0.0011
C    0.4825   -0.6857    0.0012
C    0.5144    0.6962    0.0003
C    1.8312    1.4290   -0.0008
C   -0.6802    1.3994   -0.0001
C   -1.8677    0.6832    0.0005
C   -1.8211   -0.6978    0.0014
N   -0.6657   -1.3338   -0.0033
H    2.0872   -1.6467    1.0288
H    1.6289   -2.4110   -0.5120
H    2.5441   -0.8844   -0.5134
H    2.1482    1.6050   -1.0287
H    1.7162    2.3837    0.5125
H    2.5817    0.8284    0.5131
H   -0.6860    2.4794   -0.0004
H   -2.8169    1.1983    0.0006
H   -2.7415   -1.2629    0.0018


