%nprocshared=4
%mem=100MW
%chk=HRBKVYFZANMGRE-UHFFFAOYSA-N.chk
#b3lyp/6-31+G(d) opt freq

gas opt

0 1
Cl    3.2420   -2.1262    0.4118
C    2.2014   -0.7371    0.3743
C    2.6730    0.4560   -0.1437
Cl    4.2944    0.5682   -0.7535
C    1.8349    1.5623   -0.1707
C    0.5483    1.4287    0.3257
Cl   -0.5425    2.7791    0.3162
C    0.1424    0.1997    0.8309
O   -1.1157    0.0566    1.3196
P   -2.1969   -0.4049    0.2195
S   -1.9632    0.5919   -1.3375
O   -1.9948   -1.9681   -0.1087
C   -2.5740   -2.6051   -1.2492
O   -3.6820   -0.1645    0.7929
C   -4.8469   -0.1754   -0.0346
N    0.9680   -0.8336    0.8354
H    2.1779    2.5056   -0.5693
H   -2.2075   -2.1270   -2.1576
H   -2.2970   -3.6593   -1.2563
H   -3.6593   -2.5150   -1.2036
H   -4.7611    0.6028   -0.7931
H   -4.9389   -1.1471   -0.5199
H   -5.7294    0.0099    0.5778


