%nprocshared=4
%mem=100MW
%chk=HRPVXLWXLXDGHG-UHFFFAOYSA-N.chk
#b3lyp/6-31+G(d) opt freq

gas opt

0 1
O    0.4598   -1.2540    0.0002
C    0.4505   -0.0379    0.0019
N    1.6124    0.6450   -0.0012
C   -0.8291    0.6878    0.0012
C   -1.9757    0.0140   -0.0013
H    2.4562    0.1665   -0.0048
H    1.6049    1.6150    0.0001
H   -0.8374    1.7678    0.0027
H   -1.9674   -1.0660   -0.0028
H   -2.9151    0.5467   -0.0018


