%nprocshared=4
%mem=100MW
%chk=HUPFGZXOMWLGNK-UHFFFAOYSA-N.chk
#b3lyp/6-31+G(d) opt freq

gas opt

0 1
F   -1.8006   -1.9511   -1.1692
C   -2.2551   -0.8568   -0.5203
C   -1.3681   -0.0460    0.1899
C    0.0760   -0.3834    0.2342
C    1.0252    0.5878   -0.0600
C    2.3822    0.2661   -0.0171
C    3.3960    1.2904   -0.3273
O    4.5771    1.0075   -0.2891
O    3.0129    2.5405   -0.6533
C    2.7779   -1.0361    0.3231
O    4.0953   -1.3556    0.3672
C    1.8202   -1.9969    0.6148
C    0.4802   -1.6749    0.5772
C   -1.8432    1.0812    0.8564
C   -3.1871    1.3918    0.8122
C   -4.0649    0.5847    0.1069
F   -5.3795    0.8936    0.0671
C   -3.5982   -0.5344   -0.5628
H    0.7135    1.5883   -0.3215
H    3.7137    3.1776   -0.8486
H    4.5048   -1.2173    1.2322
H    2.1258   -2.9991    0.8766
H   -0.2602   -2.4272    0.8056
H   -1.1605    1.7111    1.4073
H   -3.5554    2.2657    1.3289
H   -4.2860   -1.1605   -1.1117


