%nprocshared=4
%mem=100MW
%chk=HUTDUHSNJYTCAR-UHFFFAOYSA-N.chk
#b3lyp/6-31+G(d) opt freq

gas opt

0 1
O   -4.4430    0.9023   -0.3591
C   -5.1431    0.9138    0.8866
C   -3.1499    0.4846   -0.3362
C   -2.4107    0.4483   -1.5096
C   -1.0965    0.0233   -1.4837
C   -0.5178   -0.3656   -0.2897
C    0.9160   -0.8287   -0.2644
O    1.2425   -1.4363   -1.5160
C    1.8214    0.3526   -0.0281
C    1.6408    1.1763    1.0718
N    2.4554    2.2044    1.2467
C    3.4277    2.4486    0.3912
N    3.6294    1.6872   -0.6655
C    2.8583    0.6381   -0.9023
C    1.1030   -1.8478    0.8614
C    0.3642   -3.1819    0.7365
C    1.8800   -3.1251    0.5362
C   -1.2523   -0.3298    0.8811
C   -2.5653    0.0994    0.8614
H   -6.1620    1.2669    0.7275
H   -5.1684   -0.0951    1.2985
H   -4.6330    1.5783    1.5840
H   -2.8624    0.7516   -2.4426
H   -0.5207   -0.0055   -2.3970
H    1.1465   -0.8466   -2.2763
H    0.8457    0.9820    1.7764
H    4.0763    3.2954    0.5603
H    3.0289    0.0182   -1.7700
H    1.2190   -1.4284    1.8607
H   -0.0054   -3.6402    1.6538
H   -0.2549   -3.3335   -0.1476
H    2.2580   -3.2394   -0.4797
H    2.5076   -3.5461    1.3217
H   -0.7981   -0.6341    1.8125
H   -3.1386    0.1271    1.7763


