%nprocshared=4
%mem=100MW
%chk=HWHLPVGTWGOCJO-UHFFFAOYSA-N.chk
#b3lyp/6-31+G(d) opt freq

gas opt

0 1
O   -0.9091   -0.2100   -1.8417
C   -0.8685   -0.0608   -0.4211
C    0.4846   -0.5446    0.1041
C    1.5990    0.3270   -0.4785
N    2.8832   -0.0512    0.1263
C    4.0035    0.5922   -0.5718
C    5.3080    0.2940    0.1708
C    5.5213   -1.2211    0.2294
C    4.3183   -1.8717    0.9180
C    3.0425   -1.5107    0.1537
C   -1.0564    1.3909   -0.0629
C   -0.6273    2.3780   -0.9303
C   -0.7997    3.7096   -0.6017
C   -1.4015    4.0542    0.5941
C   -1.8315    3.0671    1.4611
C   -1.6630    1.7354    1.1305
C   -1.9874   -0.8910    0.2111
C   -3.3393   -0.4201   -0.3289
C   -4.4582   -1.2503    0.3033
C   -4.2565   -2.7266   -0.0442
C   -2.9046   -3.1976    0.4957
C   -1.7857   -2.3673   -0.1365
H   -0.2262    0.2900   -2.3094
H    0.4988   -0.4736    1.1917
H    0.6406   -1.5813   -0.1944
H    1.6484    0.1805   -1.5574
H    1.3907    1.3750   -0.2633
H    4.0679    0.2054   -1.5888
H    3.8414    1.6697   -0.6029
H    6.1412    0.7587   -0.3564
H    5.2495    0.6927    1.1835
H    5.6187   -1.6147   -0.7824
H    6.4270   -1.4398    0.7951
H    4.4445   -2.9544    0.9246
H    4.2443   -1.5071    1.9425
H    2.1825   -1.9607    0.6496
H    3.1115   -1.8877   -0.8667
H   -0.1571    2.1089   -1.8646
H   -0.4638    4.4808   -1.2791
H   -1.5355    5.0945    0.8511
H   -2.3014    3.3363    2.3955
H   -1.9989    0.9642    1.8079
H   -1.9651   -0.7663    1.2937
H   -3.4830    0.6317   -0.0813
H   -3.3616   -0.5448   -1.4115
H   -4.4359   -1.1256    1.3859
H   -5.4213   -0.9148   -0.0813
H   -5.0536   -3.3181    0.4061
H   -4.2787   -2.8514   -1.1268
H   -2.8823   -3.0728    1.5783
H   -2.7609   -4.2493    0.2481
H   -1.8080   -2.4920   -1.2191
H   -0.8226   -2.7028    0.2482


