%nprocshared=4
%mem=100MW
%chk=HYIMSNHJOBLJNT-UHFFFAOYSA-N.chk
#b3lyp/6-31+G(d) opt freq

gas opt

0 1
O   -1.4847   -3.1767   -1.2561
N   -0.5738   -2.4315   -0.9423
O    0.1979   -2.0220   -1.7910
C   -0.4083   -2.0187    0.4695
C   -0.0581   -0.7160    0.7723
C    0.1551    0.2837   -0.3350
C   -0.9478    1.3033   -0.3002
C   -0.7428    2.5414    0.1814
C   -1.8812    3.5286    0.2053
N    0.4866    2.9162    0.6504
C    1.6010    2.1946    0.3195
C    1.4938    0.9419   -0.1563
C    2.6665    0.2281   -0.4954
O    3.7575    0.7485   -0.3554
O    2.5756   -1.0304   -0.9743
C    3.8006   -1.6920   -1.2963
C    2.9652    2.8116    0.4906
C   -2.2293    0.9529   -0.7849
O   -2.4223    0.8602   -1.9828
O   -3.2381    0.7214    0.0810
C   -4.5059    0.3720   -0.4783
C    0.0961   -0.3304    2.0906
C   -0.0996   -1.2476    3.1065
C   -0.4497   -2.5499    2.8038
C   -0.6094   -2.9342    1.4853
H    0.1355   -0.2336   -1.2942
H   -2.4744    3.3772    1.1071
H   -1.4826    4.5431    0.1987
H   -2.5099    3.3795   -0.6725
H    0.5686    3.6972    1.2198
H    4.3296   -1.1247   -2.0621
H    4.4211   -1.7627   -0.4029
H    3.5856   -2.6933   -1.6695
H    2.8599    3.8227    0.8839
H    3.5512    2.2105    1.1858
H    3.4711    2.8479   -0.4742
H   -4.8531    1.1789   -1.1236
H   -4.4055   -0.5428   -1.0625
H   -5.2259    0.2133    0.3244
H    0.3696    0.6872    2.3271
H    0.0216   -0.9465    4.1365
H   -0.6021   -3.2665    3.5973
H   -0.8830   -3.9518    1.2487


