%nprocshared=4
%mem=100MW
%chk=HYVMOJOTZLNZPF-UHFFFAOYSA-N.chk
#b3lyp/6-31+G(d) opt freq

gas opt

0 1
S   -3.1625   -0.2816   -0.1003
O   -3.2874   -1.5832   -0.6566
O   -3.7969    0.8638   -0.6524
N   -3.6800   -0.3920    1.4689
C   -1.4380    0.0774   -0.0567
S   -0.7800    1.6505   -0.0299
C    0.8597    1.0228    0.0100
C    2.0508    1.7784    0.0451
O    1.9725    2.9876   -0.0358
C    3.4077    1.1572    0.1781
C    3.5247   -0.1421   -0.6194
S    2.3011   -1.3316    0.0187
O    2.0711   -2.3750   -0.9181
O    2.5314   -1.6085    1.3933
C    0.8102   -0.3646   -0.0058
C   -0.4716   -0.8488   -0.0345
H   -4.0730   -1.2175    1.7930
H   -3.5902    0.3688    2.0639
H    4.1570    1.8623   -0.1817
H    3.5989    0.9456    1.2301
H    3.3268    0.0563   -1.6727
H    4.5279   -0.5525   -0.5045
H   -0.6876   -1.9069   -0.0424


