%nprocshared=4
%mem=100MW
%chk=HYWYRSMBCFDLJT-UHFFFAOYSA-N.chk
#b3lyp/6-31+G(d) opt freq

gas opt

0 1
S    3.6378   -0.7776    0.0305
O    4.2519   -2.0229   -0.2720
O    4.1263    0.4347   -0.5270
N    2.1049   -0.9193   -0.5797
C    1.1767    0.1098   -0.3858
C   -0.1690   -0.1917   -0.1838
O   -0.5834   -1.4869   -0.1742
C   -1.9185   -1.7290   -0.1025
C   -2.7441   -1.3919   -1.1656
C   -4.1009   -1.6395   -1.0903
C   -4.6367   -2.2225    0.0433
C   -3.8163   -2.5590    1.1043
C   -2.4579   -2.3192    1.0317
C   -1.0831    0.8310    0.0076
C   -0.6602    2.1478   -0.0024
N   -1.6392    3.2391    0.2019
O   -2.8155    2.9768    0.3785
O   -1.2686    4.3993    0.1934
C    0.6743    2.4476   -0.2022
C    1.5942    1.4323   -0.3883
C    3.3983   -0.6042    1.8202
H    1.8503   -1.7157   -1.0716
H   -2.3262   -0.9359   -2.0509
H   -4.7440   -1.3773   -1.9174
H   -5.6979   -2.4150    0.1003
H   -4.2374   -3.0139    1.9887
H   -1.8176   -2.5822    1.8607
H   -2.1265    0.6002    0.1644
H    0.9998    3.4774   -0.2089
H    2.6362    1.6695   -0.5443
H    4.3677   -0.5039    2.3085
H    2.7965    0.2819    2.0221
H    2.8869   -1.4862    2.2056


