%nprocshared=4
%mem=100MW
%chk=IAKOZHOLGAGEJT-UHFFFAOYSA-N.chk
#b3lyp/6-31+G(d) opt freq

gas opt

0 1
Cl   -1.4721   -3.0161   -0.5344
C   -0.0931   -1.9946    0.0184
Cl   -0.3584   -1.5037    1.7329
Cl    1.4398   -2.9354   -0.1071
C    0.0013   -0.7460   -0.8608
C   -1.2093    0.1219   -0.6323
C   -2.2286    0.1444   -1.5663
C   -3.3392    0.9396   -1.3594
C   -3.4313    1.7157   -0.2131
O   -4.5230    2.4984   -0.0071
C   -4.5500    3.2706    1.1950
C   -2.4074    1.6910    0.7226
C   -1.3013    0.8902    0.5135
C    1.2465    0.0251   -0.5062
C    1.9647   -0.3073    0.6276
C    3.1063    0.3983    0.9551
C    3.5321    1.4411    0.1452
O    4.6550    2.1365    0.4650
C    5.0338    3.1971   -0.4146
C    2.8099    1.7724   -0.9921
C    1.6719    1.0603   -1.3181
H    0.0435   -1.0421   -1.9090
H   -2.1564   -0.4600   -2.4584
H   -4.1348    0.9573   -2.0895
H   -5.4735    3.8483    1.2350
H   -4.5007    2.6042    2.0561
H   -3.6965    3.9484    1.2107
H   -2.4767    2.2946    1.6156
H   -0.5041    0.8704    1.2419
H    1.6328   -1.1192    1.2578
H    3.6665    0.1387    1.8412
H    4.2339    3.9363   -0.4580
H    5.9443    3.6684   -0.0445
H    5.2121    2.7957   -1.4121
H    3.1392    2.5840   -1.6240
H    1.1096    1.3176   -2.2035


