%nprocshared=4
%mem=100MW
%chk=IDCPFAYURAQKDZ-UHFFFAOYSA-N.chk
#b3lyp/6-31+G(d) opt freq

gas opt

0 1
O    1.2349   -1.1281    0.0008
N    1.2051    0.0895    0.0017
O    2.2446    0.7242   -0.0022
N   -0.0250    0.7601    0.0014
C   -1.1985    0.0437   -0.0000
N   -1.1665   -1.2594   -0.0010
N   -2.4056    0.7017   -0.0003
H   -0.0488    1.7298    0.0021
H   -1.9944   -1.7648   -0.0020
H   -2.4294    1.6714    0.0004
H   -3.2335    0.1962   -0.0013


