%nprocshared=4
%mem=100MW
%chk=IDOWTHOLJBTAFI-UHFFFAOYSA-N.chk
#b3lyp/6-31+G(d) opt freq

gas opt

0 1
O    3.6313   -1.2096   -0.9957
C    4.2787   -1.1128    0.0281
O    5.2528   -2.0032    0.2954
C    5.4740   -3.0520   -0.6840
N    4.0255   -0.1109    0.8933
C    3.0866    0.8744    0.5675
C    1.9495    0.5392   -0.1543
C    1.0220    1.5176   -0.4750
O   -0.0928    1.1924   -1.1814
C   -1.0797    0.5661   -0.5123
O   -0.9146    0.2364    0.6456
N   -2.2504    0.3049   -1.1269
C   -3.3083   -0.2606   -0.4060
C   -4.6174    0.1096   -0.6856
C   -5.6590   -0.4505    0.0271
C   -7.0798   -0.0494   -0.2756
C   -5.3998   -1.3797    1.0182
C   -4.0978   -1.7503    1.2990
C   -3.0517   -1.1972    0.5863
C    1.2319    2.8297   -0.0740
C    2.3647    3.1617    0.6441
C    3.2886    2.1878    0.9711
H    5.7409   -2.6047   -1.6415
H    6.2840   -3.6989   -0.3469
H    4.5634   -3.6399   -0.7989
H    4.4941   -0.0728    1.7418
H    1.7880   -0.4823   -0.4657
H   -2.3598    0.5089   -2.0688
H   -4.8204    0.8352   -1.4595
H   -7.4886   -0.7097   -1.0405
H   -7.6803   -0.1275    0.6306
H   -7.0979    0.9791   -0.6360
H   -6.2163   -1.8164    1.5743
H   -3.8986   -2.4759    2.0738
H   -2.0348   -1.4871    0.8061
H    0.5091    3.5922   -0.3240
H    2.5260    4.1836    0.9543
H    4.1732    2.4499    1.5325


