%nprocshared=4
%mem=100MW
%chk=IFEKQNAXDMZERW-UHFFFAOYSA-N.chk
#b3lyp/6-31+G(d) opt freq

gas opt

0 1
O   -4.2940   -0.1966    0.0037
C   -3.3284    0.5245    0.0905
O   -3.4594    1.8471   -0.0975
C   -1.9781   -0.0602    0.4158
N   -2.1528   -1.3794    1.0380
C   -1.1625   -0.2068   -0.8703
C    0.2293   -0.6754   -0.5319
N    0.6225   -1.9141   -0.4462
N    1.9798   -1.9653   -0.1125
H    2.4996   -2.7754    0.0079
C    2.4578   -0.6874    0.0167
C    1.3786    0.1777   -0.2478
C    1.5713    1.5626   -0.1899
C    2.8030    2.0601    0.1223
C    3.8669    1.2047    0.3825
C    3.7046   -0.1505    0.3284
H   -4.3459    2.1760   -0.3001
H   -1.4529    0.6002    1.1058
H   -2.6376   -2.0104    0.4176
H   -1.2652   -1.7646    1.3242
H   -1.6423   -0.9354   -1.5238
H   -1.1082    0.7563   -1.3779
H    0.7497    2.2340   -0.3916
H    2.9526    3.1287    0.1672
H    4.8347    1.6166    0.6276
H    4.5395   -0.8041    0.5332


