%nprocshared=4
%mem=100MW
%chk=IGEMDIAQXSOCKX-UHFFFAOYSA-N.chk
#b3lyp/6-31+G(d) opt freq

gas opt

0 1
S    3.6693   -0.9261    0.2813
O    3.6581   -0.9584    1.7018
O    4.7837   -0.4765   -0.4772
N    3.3525   -2.4710   -0.2240
C    2.3013    0.0724   -0.2046
S    2.1609    0.9235   -1.7373
C    0.5860    1.5563   -1.2760
C    0.2667    1.1166   -0.0578
S   -1.2454    1.5457    0.7384
O   -1.0207    1.3963    2.1336
O   -1.6791    2.7628    0.1470
C   -2.4346    0.3244    0.2924
C   -2.5848   -0.8090    1.0700
C   -3.5161   -1.7682    0.7222
C   -4.3013   -1.5934   -0.4080
O   -5.2185   -2.5354   -0.7520
C   -4.1490   -0.4551   -1.1863
C   -3.2199    0.5037   -0.8314
C    1.2110    0.2937    0.5314
H    3.2985   -3.1915    0.4232
H    3.2211   -2.6555   -1.1672
H   -0.0284    2.2022   -1.8856
H   -1.9733   -0.9447    1.9498
H   -3.6326   -2.6537    1.3295
H   -6.0929   -2.3930   -0.3644
H   -4.7588   -0.3168   -2.0669
H   -3.1011    1.3902   -1.4367
H    1.0783   -0.1313    1.5154


