%nprocshared=4
%mem=100MW
%chk=IIZIPXWXNPFUOU-UHFFFAOYSA-N.chk
#b3lyp/6-31+G(d) opt freq

gas opt

0 1
O    1.4031   -1.4369    0.7105
C    1.6955   -0.3117    0.3651
N    2.9886    0.0663    0.3248
C    4.0409   -0.8821    0.6981
C    4.4940   -1.6554   -0.5419
O    5.1072   -0.7551   -1.4669
C    3.3418    1.4255   -0.0925
C    3.3780    2.3417    1.1323
C    0.6134    0.6620   -0.0249
O   -0.6828    0.0187    0.0955
C   -1.7641    0.7583   -0.2185
O   -1.6278    1.9090   -0.5829
C   -3.1155    0.1699   -0.1197
C   -4.2384    0.9336   -0.4443
C   -5.4973    0.3777   -0.3503
C   -5.6489   -0.9334    0.0651
C   -4.5404   -1.6958    0.3887
C   -3.2753   -1.1544    0.2932
H    4.8878   -0.3387    1.1170
H    3.6541   -1.5803    1.4404
H    5.2123   -2.4215   -0.2500
H    3.6307   -2.1268   -1.0117
H    5.4194   -1.1777   -2.2788
H    4.3223    1.4162   -0.5684
H    2.5982    1.7933   -0.7995
H    3.6408    3.3530    0.8219
H    2.3974    2.3510    1.6082
H    4.1215    1.9739    1.8394
H    0.6509    1.5298    0.6336
H    0.7662    0.9812   -1.0558
H   -4.1215    1.9573   -0.7680
H   -6.3667    0.9673   -0.6011
H   -6.6368   -1.3636    0.1373
H   -4.6658   -2.7183    0.7129
H   -2.4109   -1.7505    0.5462


