%nprocshared=4
%mem=100MW
%chk=IKECULIHBUCAKR-UHFFFAOYSA-N.chk
#b3lyp/6-31+G(d) opt freq

gas opt

0 1
O    1.2733    1.1885   -0.4349
C    0.6068    0.0065    0.0131
C   -0.8243   -0.0082   -0.5277
C   -1.5379   -1.2737   -0.0480
C   -1.5745    1.2243   -0.0188
C    1.3570   -1.2260   -0.4958
C    0.5742   -0.0119    1.5427
H    1.3311    1.2667   -1.3970
H   -0.8011    0.0049   -1.6174
H   -1.5612   -1.2868    1.0417
H   -2.5575   -1.2842   -0.4333
H   -1.0034   -2.1518   -0.4106
H   -1.0661    2.1259   -0.3605
H   -2.5941    1.2139   -0.4041
H   -1.5978    1.2112    1.0709
H    2.3766   -1.2156   -0.1105
H    0.8486   -2.1276   -0.1541
H    1.3803   -1.2130   -1.5855
H    0.0397    0.8661    1.9053
H    0.0658   -0.9135    1.8844
H    1.5937   -0.0015    1.9280


