%nprocshared=4
%mem=100MW
%chk=IMIDOCRTMDIQIJ-UHFFFAOYSA-N.chk
#b3lyp/6-31+G(d) opt freq

gas opt

0 1
O   -2.4708    0.3654   -1.0454
C   -2.8599   -0.0796    0.0163
O   -1.9734   -0.3963    0.9791
C   -0.6546   -0.2911    0.6630
C   -0.0492    0.9563    0.6211
C    1.2893    1.0641    0.2999
C    1.9468    2.4194    0.2543
C    2.0298   -0.0770    0.0192
N    3.3861    0.0312   -0.3058
C    4.2178   -0.7082    0.6530
C    3.6360   -0.4239   -1.6800
C    1.4231   -1.3253    0.0619
C    0.0853   -1.4316    0.3885
N   -4.1792   -0.2510    0.2322
C   -5.1441    0.0992   -0.8131
H   -0.6251    1.8435    0.8393
H    2.3507    2.6605    1.2376
H    2.7546    2.4069   -0.4773
H    1.2105    3.1710   -0.0302
H    3.9382   -1.7617    0.6399
H    5.2674   -0.6074    0.3769
H    4.0650   -0.3042    1.6538
H    3.0601    0.1868   -2.3754
H    4.6979   -0.3291   -1.9067
H    3.3353   -1.4670   -1.7777
H    1.9980   -2.2131   -0.1565
H   -0.3868   -2.4023    0.4217
H   -4.4898   -0.6063    1.0797
H   -4.9441   -0.4937   -1.7056
H   -6.1541   -0.1067   -0.4589
H   -5.0519    1.1586   -1.0525


