%nprocshared=4
%mem=100MW
%chk=IMMLSOUHQHJKTL-UHFFFAOYSA-N.chk
#b3lyp/6-31+G(d) opt freq

gas opt

0 1
Cl    3.1772    2.3616   -1.7954
C    3.9996    1.9714   -0.3172
C    4.1792    2.9534    0.5615
C    4.8399    2.8167    1.8467
C    5.9316    2.0912    2.0248
C    6.5636    1.3271    0.8956
C    5.6094    0.2741    0.4062
C    4.4332    0.5933   -0.1345
N    3.5853   -0.4401   -0.5494
C    2.2162   -0.5158   -0.0338
C    1.3429   -1.2209   -1.0332
C    1.6258   -2.4397   -1.4629
C    2.7969   -3.1800   -1.0282
C    3.2667   -3.2097    0.2151
C    2.6870   -2.5071    1.3459
C    2.2104   -1.2765    1.2623
C    0.1148   -0.5228   -1.5583
C   -1.0330   -0.7419   -0.6067
O   -0.8706   -1.3976    0.3950
O   -2.2359   -0.2086   -0.8721
C   -3.2951   -0.4607    0.0886
C   -4.5625    0.2113   -0.3732
O   -4.5721    0.8407   -1.4099
N   -5.6853    0.1129    0.3658
C   -6.9173    0.7662   -0.0832
C   -8.1072    0.0534    0.5058
O   -7.9430   -0.9023    1.2267
O   -9.3496    0.4801    0.2297
C  -10.4479   -0.2544    0.8316
C   -6.9177    2.2253    0.3770
Cl    6.0464   -1.3997    0.5523
H    3.8036    3.9310    0.2975
H    4.4205    3.3322    2.6981
H    6.3798    2.0465    3.0064
H    6.7985    2.0115    0.0804
H    7.4799    0.8522    1.2463
H    3.9042   -1.1061   -1.1784
H    1.8352    0.4915    0.1347
H    0.9547   -2.9057   -2.1692
H    3.3283   -3.7523   -1.7741
H    4.1496   -3.8039    0.3987
H    2.6430   -3.0130    2.2991
H    1.8077   -0.8062    2.1472
H    0.3141    0.5451   -1.6474
H   -0.1424   -0.9274   -2.5372
H   -3.4627   -1.5346    0.1713
H   -3.0061   -0.0621    1.0610
H   -5.6776   -0.3905    1.1949
H   -6.9730    0.7283   -1.1711
H  -11.3942    0.1934    0.5279
H  -10.4148   -1.2927    0.5016
H  -10.3594   -0.2153    1.9173
H   -6.8620    2.2632    1.4649
H   -6.0570    2.7409   -0.0490
H   -7.8344    2.7114    0.0430


