%nprocshared=4
%mem=100MW
%chk=IMONTRJLAWHYGT-UHFFFAOYSA-N.chk
#b3lyp/6-31+G(d) opt freq

gas opt

0 1
O   -5.4207    0.3169    0.2165
C   -4.9873   -0.2655   -0.7494
O   -3.6685   -0.4885   -0.8628
C   -2.8226   -0.0018    0.2129
C   -3.2125   -0.6075    1.4876
C   -3.5252   -1.0930    2.5097
C   -1.3424   -0.2699   -0.1381
C   -1.2281    0.0091   -1.6436
C   -0.6678    0.7932    0.7151
C    0.8316    0.8125    0.5659
C    1.3565   -0.3443   -0.2694
C    2.8642   -0.3950   -0.2406
C    3.5350    0.9188   -0.0269
C    4.8898    0.8990   -0.0733
C    5.5117   -0.4150   -0.3054
O    6.5019   -0.5300   -1.0044
C    4.9444   -1.6279    0.3949
C    3.4449   -1.4788    0.6420
C    2.8568    2.2291    0.2308
C    1.3484    2.1385   -0.0113
C    0.7302   -1.6693    0.1164
C   -0.7921   -1.6400    0.1922
C   -1.4532    2.0438    0.3110
C   -2.9006    1.5301    0.2922
C   -5.9280   -0.7470   -1.8238
H   -3.8049   -1.5273    3.4239
H   -1.3598    1.0756   -1.8265
H   -0.2449   -0.3014   -1.9971
H   -1.9985   -0.5486   -2.1761
H   -0.8909    0.5937    1.7897
H    1.2743    0.7124    1.5758
H    1.1383   -0.1416   -1.3211
H    3.1403   -0.6837   -1.2557
H    5.4783    1.8074    0.0560
H    5.1222   -2.5125   -0.2224
H    5.4565   -1.7620    1.3513
H    3.2749   -1.2255    1.6898
H    2.9542   -2.4296    0.4235
H    3.0342    2.5199    1.2676
H    3.2823    2.9862   -0.4276
H    1.1471    2.1754   -1.0806
H    0.8518    2.9706    0.4868
H    1.0353   -2.4407   -0.6042
H    1.1191   -1.9792    1.0986
H   -1.0903   -1.9521    1.2022
H   -1.2034   -2.3805   -0.5112
H   -1.3402    2.8252    1.0726
H   -1.1483    2.4304   -0.6567
H   -3.4270    1.9231   -0.5783
H   -3.4168    1.8305    1.2048
H   -6.9508   -0.4807   -1.5572
H   -5.6662   -0.2786   -2.7726
H   -5.8475   -1.8298   -1.9186


