%nprocshared=4
%mem=100MW
%chk=IMPKVMRTXBRHRB-UHFFFAOYSA-N.chk
#b3lyp/6-31+G(d) opt freq

gas opt

0 1
O    0.2089    2.6089    0.5211
C    0.0963    1.2158    0.8188
C   -1.2030    0.6703    0.2228
O   -1.1916    0.8552   -1.1941
C   -1.3235   -0.8212    0.5416
O   -2.5370   -1.3307   -0.0151
C   -0.1326   -1.5694   -0.0608
C    1.1667   -1.0239    0.5352
O    2.2790   -1.7226   -0.0275
C    1.2873    0.4677    0.2164
O    1.2987    0.6526   -1.2005
H    1.0110    3.0219    0.8692
H    0.0876    1.0748    1.8996
H   -2.0514    1.2033    0.6520
H   -1.9866    0.5317   -1.6394
H   -1.3322   -0.9623    1.6224
H   -2.6796   -2.2730    0.1486
H   -0.2185   -2.6320    0.1663
H   -0.1239   -1.4283   -1.1416
H    1.1580   -1.1649    1.6160
H    2.2683   -2.6757    0.1358
H    2.2129    0.8563    0.6410
H    2.0287    0.2049   -1.6497


