%nprocshared=4
%mem=100MW
%chk=INWLQCZOYSRPNW-UHFFFAOYSA-N.chk
#b3lyp/6-31+G(d) opt freq

gas opt

0 1
O   -0.1663   -0.8040    1.0031
C   -0.4156   -0.1102    0.0400
N    0.5873    0.3785   -0.7162
C    1.9168    0.1839   -0.3257
C    2.7553    1.2757   -0.1428
C    2.2342    2.6723   -0.3641
C    4.0670    1.0802    0.2426
C    4.5459   -0.2011    0.4458
C    3.7135   -1.2903    0.2645
C    2.3990   -1.1012   -0.1148
C    1.4925   -2.2889   -0.3117
C   -1.8470    0.2004   -0.3147
N   -2.7123   -0.8960    0.1388
C   -2.2484   -2.1858   -0.3896
C   -4.1138   -0.6516   -0.2252
C   -4.6052    0.6251    0.4609
C   -3.7314    1.8034    0.0219
C   -2.2707    1.5025    0.3687
H    0.3874    0.8651   -1.5312
H    1.8267    3.0602    0.5694
H    3.0482    3.3148   -0.6999
H    1.4510    2.6521   -1.1219
H    4.7196    1.9289    0.3850
H    5.5723   -0.3513    0.7465
H    4.0905   -2.2897    0.4241
H    1.0859   -2.5991    0.6508
H    0.6759   -2.0158   -0.9801
H    2.0600   -3.1107   -0.7484
H   -1.9375    0.3114   -1.3952
H   -1.2785   -2.4286    0.0444
H   -2.9669   -2.9637   -0.1315
H   -2.1557   -2.1221   -1.4738
H   -4.1935   -0.5367   -1.3062
H   -4.7249   -1.4949    0.0963
H   -5.6406    0.8147    0.1781
H   -4.5386    0.5058    1.5423
H   -3.8280    1.9474   -1.0543
H   -4.0504    2.7069    0.5413
H   -2.1674    1.3970    1.4487
H   -1.6382    2.3189    0.0202


