%nprocshared=4
%mem=100MW
%chk=IPCSVZSSVZVIGE-UHFFFAOYSA-N.chk
#b3lyp/6-31+G(d) opt freq

gas opt

0 1
O    8.1092   -1.3471    0.0005
C    8.1907   -0.1416    0.0011
O    9.3957    0.4496   -0.0041
C    6.9394    0.6982    0.0013
C    5.7120   -0.2154    0.0008
C    4.4416    0.6372    0.0011
C    3.2143   -0.2763    0.0005
C    1.9439    0.5763    0.0008
C    0.7166   -0.3373    0.0003
C   -0.5539    0.5153    0.0006
C   -1.7812   -0.3982    0.0000
C   -3.0516    0.4544    0.0003
C   -4.2789   -0.4592   -0.0002
C   -5.5493    0.3934    0.0001
C   -6.7766   -0.5202   -0.0005
C   -8.0471    0.3325   -0.0002
C   -9.2744   -0.5811   -0.0007
C  -10.5448    0.2715   -0.0004
H   10.1694   -0.1305   -0.0082
H    6.9239    1.3269    0.8916
H    6.9241    1.3277   -0.8883
H    5.7275   -0.8441   -0.8895
H    5.7273   -0.8449    0.8905
H    4.4262    1.2660    0.8914
H    4.4263    1.2668   -0.8886
H    3.2297   -0.9050   -0.8897
H    3.2296   -0.9059    0.8902
H    1.9284    1.2050    0.8911
H    1.9286    1.2058   -0.8889
H    0.7320   -0.9660   -0.8900
H    0.7318   -0.9668    0.8900
H   -0.5693    1.1440    0.8909
H   -0.5691    1.1449   -0.8891
H   -1.7657   -1.0269   -0.8902
H   -1.7659   -1.0278    0.8897
H   -3.0670    1.0831    0.8906
H   -3.0669    1.0839   -0.8894
H   -4.2635   -1.0879   -0.8905
H   -4.2636   -1.0887    0.8895
H   -5.5648    1.0221    0.8903
H   -5.5646    1.0230   -0.8896
H   -6.7612   -1.1489   -0.8907
H   -6.7614   -1.1497    0.8892
H   -8.0625    0.9612    0.8901
H   -8.0623    0.9620   -0.8899
H   -9.2589   -1.2098   -0.8910
H   -9.2591   -1.2106    0.8890
H  -11.4192   -0.3793   -0.0008
H  -10.5602    0.9002    0.8898
H  -10.5601    0.9010   -0.8901


