%nprocshared=4
%mem=100MW
%chk=IRCMYGHHKLLGHV-UHFFFAOYSA-N.chk
#b3lyp/6-31+G(d) opt freq

gas opt

0 1
S   -3.8228    0.2558   -0.2857
O   -5.0123    0.8617    0.2014
O   -2.9469    0.9577   -1.1572
O   -2.9895    0.0071    0.9634
C   -1.7036   -0.3536    0.7078
C   -0.7174    0.6161    0.5888
C    0.5836    0.2451    0.3321
C    1.8526    1.0530    0.1403
C    1.6121    2.2331   -0.8034
C    2.4026    1.5346    1.4844
C    2.7992    0.0133   -0.5048
O    4.1391    0.1924   -0.0414
C    5.1088   -0.5769   -0.7554
C    6.4996   -0.3077   -0.1773
O    2.2627   -1.2370   -0.0405
C    0.9286   -1.0934    0.1953
C   -0.0657   -2.0611    0.3104
C   -1.3695   -1.6924    0.5703
C   -4.1722   -1.4019   -0.9341
H   -0.9704    1.6604    0.6970
H    0.8622    2.8962   -0.3721
H    2.5437    2.7811   -0.9445
H    1.2592    1.8626   -1.7658
H    2.6031    0.6749    2.1239
H    3.3265    2.0894    1.3211
H    1.6700    2.1824    1.9657
H    2.7568    0.0748   -1.5922
H    4.8742   -1.6369   -0.6591
H    5.0923   -0.2953   -1.8083
H    7.2392   -0.8945   -0.7220
H    6.7342    0.7524   -0.2737
H    6.5161   -0.5892    0.8756
H    0.1855   -3.1056    0.1993
H   -2.1347   -2.4494    0.6589
H   -4.7722   -1.3186   -1.8403
H   -3.2342   -1.9071   -1.1646
H   -4.7202   -1.9762   -0.1871


