%nprocshared=4
%mem=100MW
%chk=ISWSIDIOOBJBQZ-UHFFFAOYSA-N.chk
#b3lyp/6-31+G(d) opt freq

gas opt

0 1
O    2.2699   -0.0001   -0.0368
C    0.9110   -0.0000   -0.0200
C    0.2162    1.2008   -0.0126
C   -1.1651    1.1981    0.0045
C   -1.8553    0.0000    0.0142
C   -1.1652   -1.1981    0.0073
C    0.2161   -1.2008   -0.0160
H    2.6740    0.0008    0.8417
H    0.7548    2.1368   -0.0199
H   -1.7065    2.1326    0.0106
H   -2.9352    0.0000    0.0276
H   -1.7065   -2.1326    0.0157
H    0.7547   -2.1369   -0.0214


