%nprocshared=4
%mem=100MW
%chk=IUTPYMGCWINGEY-UHFFFAOYSA-N.chk
#b3lyp/6-31+G(d) opt freq

gas opt

0 1
Cl   -5.1471   -0.7109    0.0392
C   -3.4410   -0.3982   -0.0322
C   -2.9628    0.8808    0.2047
Cl   -4.0707    2.1660    0.5714
C   -1.6066    1.1345    0.1500
C   -0.7184    0.1020   -0.1445
C   -1.2044   -1.1831   -0.3825
Cl   -0.1042   -2.4746   -0.7500
C   -2.5626   -1.4279   -0.3198
C    0.7398    0.3692   -0.2050
C    1.6290   -0.4436    0.4955
C    2.9852   -0.1909    0.4355
Cl    4.0948   -1.2020    1.3074
C    3.4617    0.8685   -0.3201
Cl    5.1678    1.1811   -0.3930
C    2.5817    1.6778   -1.0171
C    1.2248    1.4301   -0.9671
H   -1.2350    2.1315    0.3347
H   -2.9401   -2.4229   -0.5040
H    1.2581   -1.2693    1.0846
H    2.9578    2.5025   -1.6044
H    0.5393    2.0623   -1.5119


