%nprocshared=4
%mem=100MW
%chk=IVUXTESCPZUGJC-UHFFFAOYSA-N.chk
#b3lyp/6-31+G(d) opt freq

gas opt

0 1
Cl    5.8029    1.9163    0.4071
C    4.5447    0.7521    0.1326
C    3.2186    1.1230    0.2683
C    2.2160    0.1983    0.0498
C    2.5394   -1.1033   -0.3058
O    1.5545   -2.0145   -0.5216
C    0.2711   -1.6364   -0.2801
C   -0.3852   -0.8006   -1.1721
C   -1.6887   -0.4163   -0.9273
C   -2.3427   -0.8668    0.2116
N   -3.6657   -0.4774    0.4604
C   -4.1338    0.6808   -0.0455
O   -3.3805    1.4400   -0.6240
N   -5.4368    0.9974    0.0897
C   -5.9456    2.2564   -0.4602
C   -6.3444    0.0827    0.7866
C   -1.6856   -1.7035    1.1038
C   -0.3837   -2.0911    0.8555
C    3.8699   -1.4732   -0.4413
C    4.8693   -0.5440   -0.2271
H    2.9672    2.1361    0.5455
H    1.1810    0.4880    0.1562
H    0.1237   -0.4503   -2.0580
H   -2.1992    0.2348   -1.6214
H   -4.2446   -1.0415    0.9967
H   -6.2787    2.0966   -1.4857
H   -6.7834    2.6045    0.1440
H   -5.1532    3.0047   -0.4480
H   -6.3625    0.3278    1.8486
H   -7.3482    0.1821    0.3736
H   -5.9978   -0.9425    0.6563
H   -2.1937   -2.0538    1.9900
H    0.1275   -2.7419    1.5493
H    4.1237   -2.4858   -0.7181
H    5.9050   -0.8315   -0.3325


