%nprocshared=4
%mem=100MW
%chk=IWYDHOAUDWTVEP-UHFFFAOYSA-N.chk
#b3lyp/6-31+G(d) opt freq

gas opt

0 1
O   -2.7130   -0.2785   -0.8183
C   -1.9251    0.4081   -0.2120
O   -1.8553    1.7259   -0.4577
C   -1.0251   -0.2138    0.8244
O   -1.3695   -1.5908    0.9898
C    0.4091   -0.1052    0.3745
C    1.2207    0.8897    0.8868
C    2.5363    0.9893    0.4741
C    3.0403    0.0938   -0.4505
C    2.2290   -0.9017   -0.9620
C    0.9147   -1.0040   -0.5461
H   -2.4554    2.0798   -1.1284
H   -1.1487    0.3081    1.7733
H   -1.2827   -2.1175    0.1835
H    0.8269    1.5894    1.6091
H    3.1702    1.7670    0.8737
H    4.0679    0.1720   -0.7734
H    2.6227   -1.6012   -1.6846
H    0.2808   -1.7817   -0.9457


