%nprocshared=4
%mem=100MW
%chk=IYXGSMUGOJNHAZ-UHFFFAOYSA-N.chk
#b3lyp/6-31+G(d) opt freq

gas opt

0 1
O    1.1196   -1.1815    0.0030
C    1.2305    0.0217    0.0051
O    2.4496    0.5834    0.0023
C    3.5896   -0.3158   -0.0032
C    4.8834    0.5009   -0.0057
C    0.0000    0.8918    0.0046
C   -1.2305    0.0217    0.0014
O   -1.1196   -1.1814   -0.0004
O   -2.4496    0.5834    0.0004
C   -3.5896   -0.3158   -0.0028
C   -4.8834    0.5009   -0.0035
H    3.5596   -0.9461    0.8856
H    3.5538   -0.9425   -0.8944
H    4.9192    1.1275    0.8854
H    5.7392   -0.1741   -0.0099
H    4.9134    1.1312   -0.8945
H   -0.0014    1.5197    0.8956
H    0.0014    1.5225   -0.8843
H   -3.5553   -0.9429   -0.8938
H   -3.5581   -0.9457    0.8862
H   -4.9177    1.1279    0.8874
H   -4.9150    1.1308   -0.8925
H   -5.7392   -0.1741   -0.0059


