%nprocshared=4
%mem=100MW
%chk=IZNWACYOILBFEG-UHFFFAOYSA-N.chk
#b3lyp/6-31+G(d) opt freq

gas opt

0 1
O    2.1420    1.5805   -1.0558
N    1.7520    1.1131   -0.0009
O    2.1381    1.5843    1.0538
C    0.8039   -0.0237   -0.0006
C    1.2694   -1.3029   -0.0002
C    2.7558   -1.5518   -0.0007
C    0.3924   -2.3855    0.0010
C   -0.9556   -2.1955    0.0010
C   -1.4735   -0.8894    0.0002
C   -0.5812    0.2119    0.0053
C   -1.0993    1.5184    0.0045
C   -2.4469    1.7083   -0.0010
C   -3.3243    0.6253   -0.0056
C   -2.8591   -0.6536    0.0002
H    3.1145   -1.6114    1.0269
H    2.9669   -2.4897   -0.5142
H    3.2609   -0.7342   -0.5150
H    0.7879   -3.3905    0.0016
H   -1.6234   -3.0443    0.0012
H   -0.4316    2.3672    0.0087
H   -2.8424    2.7133   -0.0016
H   -4.3895    0.8038   -0.0092
H   -3.5509   -1.4829   -0.0038


