%nprocshared=4
%mem=100MW
%chk=JHJOOSLFWRRSGU-UHFFFAOYSA-N.chk
#b3lyp/6-31+G(d) opt freq

gas opt

0 1
Cl   -4.3478   -0.3607    0.6737
C   -2.7048   -0.3700    0.1132
C   -2.1103    0.8086   -0.3057
Cl   -3.0084    2.2938   -0.2695
C   -0.8019    0.8031   -0.7524
C   -0.0848   -0.3836   -0.7807
O    1.2020   -0.3909   -1.2192
P    2.2555    0.2227   -0.1677
S    1.5744    1.8052    0.5425
O    2.5058   -0.8347    1.0203
C    3.1330   -0.4837    2.2554
O    3.6474    0.5264   -0.9178
C    4.6709    1.3500   -0.3556
C   -0.6824   -1.5639   -0.3604
Cl    0.2131   -3.0507   -0.3942
C   -1.9892   -1.5535    0.0910
H   -0.3387    1.7223   -1.0794
H    2.5490    0.2910    2.7522
H    3.1900   -1.3632    2.8968
H    4.1385   -0.1112    2.0593
H    5.5124    1.4060   -1.0461
H    4.2768    2.3512   -0.1813
H    5.0042    0.9211    0.5894
H   -2.4545   -2.4717    0.4181


