%nprocshared=4
%mem=100MW
%chk=JIEKMACRVQTPRC-UHFFFAOYSA-N.chk
#b3lyp/6-31+G(d) opt freq

gas opt

0 1
Cl   -5.5441    2.1700   -0.1313
C   -3.9425    1.5112   -0.0101
C   -2.9254    2.2682    0.5458
C   -1.6507    1.7489    0.6448
C   -1.3882    0.4601    0.1841
C   -0.0197   -0.1033    0.2886
C    0.2063   -1.3895    0.6265
C   -0.8482   -2.4195    0.9394
C   -1.2468   -3.1314   -0.3277
O   -0.7277   -2.8329   -1.3771
O   -2.1784   -4.0970   -0.2904
S    1.9481   -1.6571    0.6380
C    2.2091    0.0226    0.1775
C    3.5283    0.6547   -0.0386
C    3.6098    1.9994   -0.4028
C    4.8437    2.5833   -0.6025
C    5.9988    1.8387   -0.4424
C    5.9249    0.5052   -0.0814
C    4.6973   -0.0893    0.1264
N    1.0604    0.6185    0.0518
C   -2.4155   -0.2980   -0.3747
C   -3.6880    0.2284   -0.4644
H   -3.1298    3.2670    0.9022
H   -0.8579    2.3404    1.0783
H   -0.4504   -3.1419    1.6522
H   -1.7206   -1.9274    1.3694
H   -2.4009   -4.5250   -1.1285
H    2.7088    2.5816   -0.5284
H    4.9081    3.6238   -0.8847
H    6.9623    2.3004   -0.6002
H    6.8302   -0.0707    0.0416
H    4.6409   -1.1303    0.4085
H   -2.2170   -1.2971   -0.7334
H   -4.4849   -0.3583   -0.8969


