%nprocshared=4
%mem=100MW
%chk=JJYPMNFTHPTTDI-UHFFFAOYSA-N.chk
#b3lyp/6-31+G(d) opt freq

gas opt

0 1
N    2.3916    1.0182    0.0004
C    1.1891    0.3077    0.0010
C   -0.0220    0.9886    0.0001
C   -1.2089    0.2831    0.0002
C   -2.5230    1.0208   -0.0007
C   -1.1932   -1.0999    0.0007
C    0.0102   -1.7807    0.0016
C    1.2012   -1.0812   -0.0034
H    2.3818    1.9882   -0.0006
H    3.2365    0.5417    0.0050
H   -0.0349    2.0685   -0.0003
H   -2.8395    1.1980   -1.0286
H   -3.2757    0.4230    0.5133
H   -2.4043    1.9751    0.5125
H   -2.1230   -1.6493    0.0008
H    0.0190   -2.8607    0.0019
H    2.1409   -1.6135   -0.0031


