%nprocshared=4
%mem=100MW
%chk=JLKIGFTWXXRPMT-UHFFFAOYSA-N.chk
#b3lyp/6-31+G(d) opt freq

gas opt

0 1
S    0.2010   -1.8270   -0.1848
O    0.7874   -2.9417    0.4732
O   -0.2303   -1.8621   -1.5383
N   -1.1195   -1.3939    0.7158
C   -1.8919   -0.3010    0.3365
N   -1.7006    0.4743   -0.6992
O   -2.5409    1.3413   -0.7640
C   -3.4225    1.2555    0.2429
C   -4.6018    2.1615    0.4867
C   -3.0509    0.1936    0.9931
C    1.3665   -0.5107   -0.0679
C    2.3108   -0.5130    0.9423
C    3.2257    0.5172    1.0368
C    3.1967    1.5565    0.1155
N    4.1208    2.5997    0.2078
C    2.2468    1.5556   -0.8981
C    1.3384    0.5195   -0.9901
H   -1.3544   -1.9023    1.5078
H   -4.6425    2.9225   -0.2926
H   -5.5203    1.5748    0.4700
H   -4.4955    2.6425    1.4590
H   -3.5217   -0.1860    1.8878
H    2.3326   -1.3211    1.6584
H    3.9627    0.5150    1.8262
H    4.7839    2.5990    0.9159
H    4.0996    3.3248   -0.4360
H    2.2215    2.3621   -1.6159
H    0.5998    0.5180   -1.7780


