%nprocshared=4
%mem=100MW
%chk=JLRGJRBPOGGCBT-UHFFFAOYSA-N.chk
#b3lyp/6-31+G(d) opt freq

gas opt

0 1
S    1.2425    1.7972    0.0354
O    1.9026    2.6527   -0.8874
O    1.0758    2.1174    1.4098
N   -0.2762    1.5374   -0.5717
C   -1.1342    0.7296    0.0822
O   -0.7933    0.1915    1.1179
N   -2.3702    0.5182   -0.4119
C   -3.3029   -0.3599    0.2989
C   -4.6249   -0.4277   -0.4684
C   -5.5990   -1.3447    0.2739
C   -6.9209   -1.4125   -0.4934
C    2.0956    0.2564   -0.0166
C    2.8262   -0.0917   -1.1373
C    3.4954   -1.3005   -1.1781
C    3.4344   -2.1612   -0.0981
C    4.1636   -3.4793   -0.1428
C    2.7049   -1.8126    1.0231
C    2.0388   -0.6020    1.0655
H   -0.5481    1.9667   -1.3979
H   -2.6422    0.9475   -1.2381
H   -2.8750   -1.3595    0.3743
H   -3.4830    0.0346    1.2989
H   -5.0528    0.5720   -0.5439
H   -4.4448   -0.8222   -1.4684
H   -5.1710   -2.3444    0.3494
H   -5.7791   -0.9502    1.2739
H   -7.3489   -0.4129   -0.5688
H   -6.7408   -1.8071   -1.4934
H   -7.6149   -2.0658    0.0355
H    2.8739    0.5807   -1.9811
H    4.0657   -1.5727   -2.0540
H    5.1722   -3.3500    0.2497
H    3.6290   -4.2110    0.4629
H    4.2170   -3.8302   -1.1734
H    2.6575   -2.4848    1.8671
H    1.4689   -0.3296    1.9415


