%nprocshared=4
%mem=100MW
%chk=JQUIGGQYRQVIIE-UHFFFAOYSA-N.chk
#b3lyp/6-31+G(d) opt freq

gas opt

0 1
O    1.7631   -1.3206    0.0005
C    1.9914   -0.1301    0.0094
N    3.2646    0.3119    0.0102
C    4.2840   -0.5696    0.0012
O    4.0588   -1.7576    0.0886
C    5.7038   -0.0786   -0.1176
C    3.5405    1.7507    0.0210
C    0.8515    0.8557    0.0132
O   -0.4100    0.1369    0.0049
C   -1.5356    0.8769    0.0070
O   -1.4652    2.0896    0.0156
C   -2.8557    0.2138   -0.0011
C   -4.0244    0.9779    0.0011
C   -5.2537    0.3521   -0.0070
C   -5.3303   -1.0294   -0.0168
C   -4.1762   -1.7926   -0.0186
C   -2.9403   -1.1798   -0.0168
H    6.1365    0.0261    0.8773
H    6.2888   -0.7947   -0.6948
H    5.7130    0.8880   -0.6213
H    3.7064    2.0812    1.0463
H    4.4301    1.9545   -0.5749
H    2.6902    2.2868   -0.4005
H    0.9105    1.4758    0.9077
H    0.9152    1.4882   -0.8722
H   -3.9660    2.0562    0.0095
H   -6.1584    0.9419   -0.0053
H   -6.2953   -1.5142   -0.0227
H   -4.2431   -2.8705   -0.0255
H   -2.0402   -1.7767   -0.0182


