%nprocshared=4
%mem=100MW
%chk=JSZOAYXJRCEYSX-UHFFFAOYSA-N.chk
#b3lyp/6-31+G(d) opt freq

gas opt

0 1
O    1.2780   -1.1601   -0.1022
N    1.0363    0.0331   -0.0650
O    1.9144    0.8234    0.2317
C   -0.3089    0.5183   -0.3829
C   -1.3466   -0.3554    0.3248
C   -2.7516    0.1513   -0.0072
H   -0.4122    1.5498   -0.0462
H   -0.4674    0.4702   -1.4602
H   -1.2434   -1.3870   -0.0119
H   -1.1882   -0.3073    1.4021
H   -2.8548    1.1828    0.3295
H   -2.9100    0.1031   -1.0846
H   -3.4909   -0.4712    0.4969


