%nprocshared=4
%mem=100MW
%chk=JUJWROOIHBZHMG-UHFFFAOYSA-N.chk
#b3lyp/6-31+G(d) opt freq

gas opt

0 1
N    0.0002   -1.3400   -0.0001
C   -1.1517   -0.6980    0.0002
C   -1.1912    0.6834   -0.0000
C   -0.0002    1.3933   -0.0000
C    1.1910    0.6837    0.0002
C    1.1519   -0.6978   -0.0001
H   -2.0750   -1.2583    0.0002
H   -2.1377    1.2035   -0.0005
H   -0.0003    2.4733   -0.0005
H    2.1374    1.2040   -0.0002
H    2.0753   -1.2579    0.0004


