%nprocshared=4
%mem=100MW
%chk=JVPGYYNQTPWXGE-UHFFFAOYSA-N.chk
#b3lyp/6-31+G(d) opt freq

gas opt

0 1
C    5.7572    0.2734    0.0014
C    4.2526    0.1890    0.0008
C    3.4977    1.3484   -0.0006
C    2.1198    1.2779   -0.0007
C    1.4878    0.0338    0.0001
C    0.0113   -0.0490   -0.0005
S   -0.9104   -1.5463    0.0004
C   -2.4173   -0.6335   -0.0000
C   -2.1069    0.7318   -0.0008
N   -0.7837    0.9671    0.0038
C   -3.1709    1.6606   -0.0012
C   -4.4630    1.2322   -0.0009
C   -4.7621   -0.1228   -0.0001
C   -3.7463   -1.0524    0.0003
C    2.2550   -1.1317    0.0010
C    3.6321   -1.0476   -0.0041
H    6.1195    0.2947    1.0292
H    6.1701   -0.5953   -0.5115
H    6.0704    1.1819   -0.5131
H    3.9880    2.3106   -0.0012
H    1.5316    2.1837   -0.0011
H   -2.9576    2.7193   -0.0014
H   -5.2649    1.9556   -0.0008
H   -5.7918   -0.4484    0.0002
H   -3.9798   -2.1068    0.0009
H    1.7718   -2.0976    0.0020
H    4.2271   -1.9490   -0.0034


