%nprocshared=4
%mem=100MW
%chk=JVSWJIKNEAIKJW-UHFFFAOYSA-N.chk
#b3lyp/6-31+G(d) opt freq

gas opt

0 1
C    2.1894   -0.0185   -0.3427
C    0.8876    0.6129    0.1550
C   -0.3001   -0.2291   -0.3155
C   -1.6018    0.4022    0.1822
C   -2.7895   -0.4398   -0.2883
C   -4.0913    0.1916    0.2094
C    3.3672    0.8881    0.0202
C    2.3770   -1.3866    0.3160
H    2.1440   -0.1395   -1.4250
H    0.8962    0.6524    1.2442
H    0.7978    1.6230   -0.2446
H   -0.3086   -0.2687   -1.4047
H   -0.2102   -1.2393    0.0841
H   -1.5933    0.4418    1.2714
H   -1.6917    1.4124   -0.2174
H   -2.7981   -0.4793   -1.3775
H   -2.6997   -1.4499    0.1113
H   -4.9374   -0.4083   -0.1258
H   -4.0827    0.2311    1.2986
H   -4.1811    1.2017   -0.1902
H    3.4126    1.0091    1.1025
H    4.2946    0.4383   -0.3344
H    3.2335    1.8628   -0.4491
H    1.5379   -2.0325    0.0575
H    3.3044   -1.8365   -0.0385
H    2.4224   -1.2657    1.3983


