%nprocshared=4
%mem=100MW
%chk=JWBOIMRXGHLCPP-UHFFFAOYSA-N.chk
#b3lyp/6-31+G(d) opt freq

gas opt

0 1
Cl   -0.1102    3.0826   -0.9867
C    0.8570    1.9598    0.0403
Cl    0.2143    1.9817    1.7247
C    0.7600    0.5410   -0.5242
C    1.7022   -0.3640    0.2269
C    2.6503   -1.1005   -0.4613
Cl    2.7545   -0.9823   -2.1901
C    3.5151   -1.9306    0.2290
C    3.4319   -2.0239    1.6057
C    2.4845   -1.2884    2.2925
C    1.6235   -0.4541    1.6037
C   -0.6513    0.0350   -0.3714
C   -1.3975   -0.2796   -1.4917
C   -2.6919   -0.7438   -1.3522
C   -3.2405   -0.8939   -0.0910
Cl   -4.8660   -1.4774    0.0850
C   -2.4930   -0.5793    1.0298
C   -1.1971   -0.1198    0.8892
H    1.8993    2.2785    0.0450
H    1.0301    0.5509   -1.5802
H    4.2550   -2.5059   -0.3077
H    4.1071   -2.6720    2.1446
H    2.4193   -1.3622    3.3680
H    0.8836    0.1206    2.1409
H   -0.9692   -0.1624   -2.4762
H   -3.2751   -0.9889   -2.2276
H   -2.9207   -0.6963    2.0146
H   -0.6134    0.1258    1.7641


