%nprocshared=4
%mem=100MW
%chk=JWUCHKBSVLQQCO-UHFFFAOYSA-N.chk
#b3lyp/6-31+G(d) opt freq

gas opt

0 1
F   -0.1905   -0.9837   -1.8366
C    0.4734   -1.5342   -0.7967
C    0.6126   -0.8300    0.3875
C    0.0235    0.5510    0.5169
O    0.2979    1.0656    1.8215
C    0.6451    1.4714   -0.5354
N    2.1042    1.4443   -0.4071
N    2.8527    1.7167    0.7496
C    4.1116    1.5786    0.4260
N    4.1930    1.2375   -0.8594
C    2.9925    1.1482   -1.3717
C   -1.4673    0.4829    0.3071
C   -2.3077    0.2747    1.3849
C   -3.6749    0.2116    1.1936
C   -4.2030    0.3575   -0.0780
F   -5.5394    0.2964   -0.2661
C   -3.3603    0.5665   -1.1566
C   -1.9938    0.6344   -0.9621
C    1.2914   -1.3942    1.4506
C    1.8321   -2.6613    1.3321
C    1.6942   -3.3650    0.1504
C    1.0102   -2.8051   -0.9122
H   -0.0529    1.9534    1.9759
H    0.3615    1.1290   -1.5306
H    0.2860    2.4895   -0.3854
H    4.9499    1.7189    1.0924
H    2.7565    0.8886   -2.3932
H   -1.8955    0.1609    2.3766
H   -4.3312    0.0482    2.0356
H   -3.7711    0.6801   -2.1489
H   -1.3363    0.7978   -1.8033
H    1.4001   -0.8452    2.3742
H    2.3628   -3.1014    2.1634
H    2.1172   -4.3545    0.0589
H    0.9026   -3.3551   -1.8354


