%nprocshared=4
%mem=100MW
%chk=JWZZKOKVBUJMES-UHFFFAOYSA-N.chk
#b3lyp/6-31+G(d) opt freq

gas opt

0 1
O   -1.0279    1.3381    1.6706
C   -0.6826    0.1036    1.0389
C   -1.6395   -0.1584   -0.1258
N   -3.0166   -0.2355    0.3798
C   -3.9653   -0.4868   -0.7132
C   -5.2194   -1.1623   -0.1548
C   -4.3504    0.8405   -1.3697
C    0.7302    0.1827    0.5203
C    1.5368   -0.9403    0.5418
C    2.8355   -0.8694    0.0650
O    3.6299   -1.9730    0.0850
C    3.3254    0.3337   -0.4349
O    4.5995    0.4082   -0.9045
C    2.5121    1.4549   -0.4535
C    1.2149    1.3760    0.0191
H   -0.9815    2.1061    1.0849
H   -0.7593   -0.7084    1.7620
H   -1.5628    0.6536   -0.8488
H   -1.3761   -1.1000   -0.6076
H   -3.0990   -0.9384    1.0989
H   -3.5016   -1.1377   -1.4544
H   -5.6832   -0.5114    0.5864
H   -5.9234   -1.3488   -0.9658
H   -4.9451   -2.1079    0.3129
H   -3.4569    1.3217   -1.7676
H   -5.0543    0.6540   -2.1807
H   -4.8141    1.4913   -0.6285
H    1.1544   -1.8725    0.9305
H    3.5753   -2.5115   -0.7164
H    4.6834    0.2103   -1.8473
H    2.8899    2.3897   -0.8405
H    0.5817    2.2508    0.0037


