%nprocshared=4
%mem=100MW
%chk=JXCGFZXSOMJFOA-UHFFFAOYSA-N.chk
#b3lyp/6-31+G(d) opt freq

gas opt

0 1
Cl   -3.5708   -1.4460   -0.2959
C   -2.2345   -0.3731   -0.0190
C   -2.4539    0.9883    0.1013
C   -3.8531    1.5371   -0.0084
C   -1.3920    1.8454    0.3223
C   -0.1082    1.3456    0.4233
C    0.1159   -0.0195    0.3032
N    1.4156   -0.5282    0.4052
C    2.4567    0.1821   -0.0724
O    2.2776    1.2999   -0.5159
N    3.6963   -0.3467   -0.0582
C    4.8280    0.4253   -0.5773
C    3.9120   -1.6936    0.4762
C   -0.9528   -0.8794    0.0869
H   -4.3129    1.5601    0.9796
H   -3.8162    2.5476   -0.4155
H   -4.4423    0.9007   -0.6686
H   -1.5664    2.9072    0.4157
H    0.7208    2.0162    0.5953
H    1.5671   -1.3920    0.8196
H    5.2670    1.0131    0.2288
H    5.5777   -0.2553   -0.9806
H    4.4811    1.0927   -1.3663
H    3.8071   -2.4240   -0.3261
H    4.9143   -1.7603    0.8995
H    3.1752   -1.8987    1.2529
H   -0.7817   -1.9416   -0.0066


