%nprocshared=4
%mem=100MW
%chk=JXSJBGJIGXNWCI-UHFFFAOYSA-N.chk
#b3lyp/6-31+G(d) opt freq

gas opt

0 1
S    2.8609   -0.3169    0.1806
P    1.4439   -1.5260    0.1271
S   -0.1680   -0.6779   -0.9579
C   -0.5213    0.8459   -0.0393
C    0.5015    1.8945   -0.3934
O    0.3015    2.6455   -1.3185
O    1.6348    1.9941    0.3189
C    2.5747    3.0270   -0.0786
C    3.7959    2.9872    0.8421
C   -1.9179    1.3510   -0.4072
C   -2.9510    0.3622    0.0682
O   -2.6150   -0.5921    0.7288
O   -4.2445    0.5415   -0.2423
C   -5.1974   -0.3849    0.3425
C   -6.5935   -0.1000   -0.2148
O    1.9228   -2.8824   -0.5960
C    2.6868   -2.8927   -1.8036
O    0.9648   -1.8582    1.6278
C    0.2181   -0.9392    2.4278
H   -0.4784    0.6433    1.0308
H    2.8898    2.8549   -1.1078
H    2.0950    4.0030   -0.0039
H    3.4808    3.1593    1.8713
H    4.2756    2.0113    0.7674
H    4.5015    3.7626    0.5437
H   -2.0923    2.3159    0.0689
H   -1.9911    1.4611   -1.4891
H   -4.9092   -1.4067    0.0956
H   -5.2063   -0.2615    1.4255
H   -6.8817    0.9218    0.0321
H   -6.5846   -0.2234   -1.2977
H   -7.3089   -0.7954    0.2243
H    2.8887   -3.9229   -2.0970
H    2.1251   -2.3935   -2.5932
H    3.6292   -2.3696   -1.6418
H    0.1174   -1.3356    3.4382
H    0.7386    0.0179    2.4632
H   -0.7712   -0.7988    1.9923


