%nprocshared=4
%mem=100MW
%chk=JXVIIQLNUPXOII-UHFFFAOYSA-N.chk
#b3lyp/6-31+G(d) opt freq

gas opt

0 1
O    0.5076    0.4085    1.2104
C    0.2023    0.1082    0.0724
N    1.1578   -0.2392   -0.8123
C    2.5080   -0.1476   -0.4559
C    3.4252   -1.0578   -0.9646
C    4.7571   -0.9644   -0.6114
C    5.1776    0.0338    0.2482
C    4.2667    0.9414    0.7568
C    2.9344    0.8572    0.4025
N   -1.0922    0.1172   -0.3027
C   -2.1314    0.4890    0.6607
C   -3.3548    1.0207   -0.0886
C   -2.9564    2.2494   -0.9086
C   -3.8913   -0.0647   -1.0240
C   -4.2897   -1.2934   -0.2040
C   -3.0663   -1.8251    0.5453
C   -2.5298   -0.7397    1.4807
H    0.9096   -0.5528   -1.6960
H    3.0973   -1.8381   -1.6354
H    5.4709   -1.6720   -1.0066
H    6.2196    0.1046    0.5232
H    4.5982    1.7197    1.4282
H    2.2235    1.5665    0.7998
H   -1.3358   -0.1224   -1.2105
H   -1.7492    1.2623    1.3271
H   -4.1280    1.2973    0.6282
H   -2.1833    1.9728   -1.6254
H   -3.8280    2.6281   -1.4425
H   -2.5742    3.0226   -0.2422
H   -4.7629    0.3140   -1.5579
H   -3.1182   -0.3413   -1.7408
H   -5.0629   -1.0168    0.5128
H   -4.6719   -2.0667   -0.8704
H   -3.3501   -2.7004    1.1295
H   -2.2931   -2.1017   -0.1715
H   -1.6582   -1.1184    2.0146
H   -3.3030   -0.4631    2.1975


