%nprocshared=4
%mem=100MW
%chk=JYFHYPJRHGVZDY-UHFFFAOYSA-N.chk
#b3lyp/6-31+G(d) opt freq

gas opt

0 1
P   -0.0000    0.7011    0.0281
O   -0.0000    1.4107    1.3269
O    1.3146   -0.2222   -0.0789
C    2.6393    0.2877    0.0853
C    3.6480   -0.8510   -0.0781
C    5.0664   -0.3050    0.0978
C    6.0752   -1.4437   -0.0657
O   -1.3146   -0.2222   -0.0790
C   -2.6393    0.2877    0.0853
C   -3.6480   -0.8510   -0.0781
C   -5.0664   -0.3050    0.0978
C   -6.0752   -1.4437   -0.0657
O    0.0000    1.7759   -1.1706
H    2.8300    1.0529   -0.6672
H    2.7405    0.7228    1.0796
H    3.4573   -1.6161    0.6744
H    3.5469   -1.2860   -1.0724
H    5.2572    0.4601   -0.6547
H    5.1676    0.1301    1.0921
H    5.8845   -2.2089    0.6868
H    5.9740   -1.8788   -1.0600
H    7.0857   -1.0547    0.0596
H   -2.7405    0.7228    1.0796
H   -2.8300    1.0529   -0.6672
H   -3.5469   -1.2860   -1.0724
H   -3.4573   -1.6161    0.6744
H   -5.1676    0.1301    1.0921
H   -5.2572    0.4601   -0.6547
H   -5.9740   -1.8788   -1.0600
H   -5.8845   -2.2089    0.6868
H   -7.0857   -1.0547    0.0596
H    0.0000    1.3808   -2.0532


