%nprocshared=4
%mem=100MW
%chk=JYVLIDXNZAXMDK-UHFFFAOYSA-N.chk
#b3lyp/6-31+G(d) opt freq

gas opt

0 1
O    1.2565    1.2897   -0.1668
C    1.0168   -0.0161    0.3618
C   -0.3132   -0.5478   -0.1761
C   -1.4591    0.3186    0.3502
C   -2.7891   -0.2131   -0.1877
C    2.1495   -0.9535   -0.0615
H    1.3065    1.3202   -1.1321
H    0.9745    0.0345    1.4498
H   -0.3036   -0.5150   -1.2656
H   -0.4538   -1.5767    0.1551
H   -1.4687    0.2858    1.4397
H   -1.3185    1.3475    0.0189
H   -2.7796   -0.1803   -1.2772
H   -2.9297   -1.2420    0.1435
H   -3.6055    0.4041    0.1872
H    3.0970   -0.5747    0.3217
H    1.9667   -1.9495    0.3417
H    2.1918   -1.0041   -1.1495


