%nprocshared=4
%mem=100MW
%chk=JYYNAJVZFGKDEQ-UHFFFAOYSA-N.chk
#b3lyp/6-31+G(d) opt freq

gas opt

0 1
C    2.4820   -1.0405    0.0010
C    1.1759   -0.2889    0.0010
N    1.1828    1.0299    0.0000
C    0.0649    1.7291   -0.0005
C   -1.1644    1.0971   -0.0000
C   -1.2116   -0.2884    0.0010
C   -2.5317   -1.0153    0.0010
C   -0.0152   -0.9895   -0.0038
H    2.7974   -1.2210    1.0287
H    2.3529   -1.9935   -0.5121
H    3.2406   -0.4507   -0.5135
H    0.1102    2.8082   -0.0009
H   -2.0766    1.6753   -0.0001
H   -2.8496   -1.1913   -1.0266
H   -2.4209   -1.9698    0.5156
H   -3.2795   -0.4106    0.5141
H   -0.0143   -2.0695   -0.0031


