%nprocshared=4
%mem=100MW
%chk=JZQKKSLKJUAGIC-UHFFFAOYSA-N.chk
#b3lyp/6-31+G(d) opt freq

gas opt

0 1
O    0.6505   -0.3498   -0.0695
C   -0.5340    0.4496   -0.0674
C   -1.7637   -0.4607   -0.0840
O   -1.8144   -1.2148    1.1288
C   -3.0279    0.3921   -0.2075
N   -4.2085   -0.4819   -0.2234
C   -5.4439    0.3042   -0.3413
C   -6.5412   -0.5608   -0.9646
C   -5.8875    0.7683    1.0474
C    1.8390    0.3086   -0.0559
C    3.0422   -0.4084   -0.0569
C    4.2678    0.2790   -0.0427
N    5.2656   -0.6698   -0.0474
H    6.2166   -0.4785   -0.0398
C    4.7155   -1.9236   -0.0639
C    3.3764   -1.8346   -0.0704
C    4.2720    1.6711   -0.0278
C    3.0818    2.3639   -0.0269
C    1.8689    1.6895   -0.0466
H   -0.5527    1.0692    0.8291
H   -0.5429    1.0882   -0.9507
H   -1.7003   -1.1416   -0.9328
H   -1.8717   -0.6722    1.9272
H   -3.0913    1.0730    0.6413
H   -2.9892    0.9673   -1.1326
H   -4.1427   -1.1651   -0.9629
H   -5.2627    1.1730   -0.9741
H   -6.7224   -1.4296   -0.3318
H   -7.4579    0.0224   -1.0521
H   -6.2252   -0.8915   -1.9540
H   -5.1058    1.3846    1.4915
H   -6.8042    1.3516    0.9599
H   -6.0687   -0.1005    1.6802
H    5.2759   -2.8468   -0.0713
H    2.6778   -2.6581   -0.0831
H    5.2091    2.2080   -0.0164
H    3.0923    3.4438   -0.0152
H    0.9439    2.2470   -0.0461


