%nprocshared=4
%mem=100MW
%chk=KAESVJOAVNADME-UHFFFAOYSA-N.chk
#b3lyp/6-31+G(d) opt freq

gas opt

0 1
N   -1.1172    0.0007   -0.0018
H   -2.0872    0.0013   -0.0023
C   -0.3221    1.1083    0.0007
C    0.9643    0.7039    0.0006
C    0.9634   -0.7050   -0.0019
C   -0.3235   -1.1079    0.0026
H   -0.6637    2.1329    0.0018
H    1.8352    1.3426    0.0022
H    1.8335   -1.3448   -0.0027
H   -0.6663   -2.1320    0.0027


