%nprocshared=4
%mem=100MW
%chk=KANLOADZXMMCQA-UHFFFAOYSA-N.chk
#b3lyp/6-31+G(d) opt freq

gas opt

0 1
C    4.6380   -0.1714    0.0012
C    3.1318   -0.2197    0.0010
C    2.4213    0.9451    0.0005
C    1.0201    0.9054    0.0003
C    0.3670   -0.3480    0.0005
C   -1.0985   -0.3783    0.0002
C   -1.8028    0.8466   -0.0003
C   -1.0904    2.0685   -0.0001
C    0.2576    2.0966   -0.0007
C   -3.2048    0.8282   -0.0007
C   -3.8663   -0.3647   -0.0004
C   -3.1697   -1.5674    0.0007
C   -1.8041   -1.5831    0.0015
C    1.1216   -1.5222    0.0006
C    2.4858   -1.4499   -0.0045
H    5.0010   -0.1594    1.0289
H    5.0298   -1.0494   -0.5123
H    4.9727    0.7297   -0.5128
H    2.9366    1.8942    0.0007
H   -1.6382    2.9993   -0.0005
H    0.7661    3.0494    0.0003
H   -3.7590    1.7552   -0.0009
H   -4.9463   -0.3747   -0.0007
H   -3.7145   -2.4999    0.0012
H   -1.2724   -2.5231    0.0020
H    0.6292   -2.4834    0.0011
H    3.0687   -2.3591   -0.0048


