%nprocshared=4
%mem=100MW
%chk=KDYFGRWQOYBRFD-UHFFFAOYSA-N.chk
#b3lyp/6-31+G(d) opt freq

gas opt

0 1
O    2.0383   -1.2449    0.0009
C    1.9034   -0.0442    0.0019
O    2.9836    0.7526   -0.0024
C    0.5223    0.5589    0.0016
C   -0.5223   -0.5589    0.0000
C   -1.9034    0.0442   -0.0002
O   -2.0383    1.2449    0.0008
O   -2.9836   -0.7526   -0.0015
H    3.8484    0.3197   -0.0062
H    0.3945    1.1744    0.8921
H    0.3955    1.1760   -0.8879
H   -0.3945   -1.1744   -0.8904
H   -0.3955   -1.1760    0.8895
H   -3.8484   -0.3197   -0.0016


