%nprocshared=4
%mem=100MW
%chk=KENZYIHFBRWMOD-UHFFFAOYSA-N.chk
#b3lyp/6-31+G(d) opt freq

gas opt

0 1
Cl    3.5653   -1.0550    1.3041
C    2.3902   -0.1200    0.4331
C    2.7951    0.9659   -0.3267
Cl    4.4772    1.3878   -0.4056
C    1.8627    1.7148   -1.0231
C    0.5241    1.3832   -0.9641
C    0.1114    0.2925   -0.2017
C   -1.3263   -0.0680   -0.1356
C   -1.7297   -1.3828   -0.3676
Cl   -0.5500   -2.6025   -0.7338
C   -3.0695   -1.7127   -0.3048
C   -4.0104   -0.7420   -0.0132
C   -3.6157    0.5645    0.2179
Cl   -4.8035    1.7767    0.5833
C   -2.2777    0.9044    0.1638
C    1.0540   -0.4627    0.4937
H    2.1830    2.5604   -1.6137
H   -0.2024    1.9688   -1.5078
H   -3.3829   -2.7305   -0.4843
H   -5.0570   -1.0041    0.0342
H   -1.9708    1.9241    0.3442
H    0.7388   -1.3091    1.0859


