%nprocshared=4
%mem=100MW
%chk=KFNNIILCVOLYIR-UHFFFAOYSA-N.chk
#b3lyp/6-31+G(d) opt freq

gas opt

0 1
O   -2.8702    0.1711   -0.0000
C   -1.8006   -0.3910   -0.0003
O   -0.6657    0.3258    0.0001
C    0.5825   -0.4160   -0.0002
C    1.7579    0.5635    0.0002
C    3.0731   -0.2182   -0.0001
H   -1.7577   -1.4701    0.0037
H    0.6323   -1.0438    0.8895
H    0.6323   -1.0429   -0.8905
H    1.7081    1.1912   -0.8895
H    1.7080    1.1904    0.8905
H    3.9105    0.4796    0.0003
H    3.1229   -0.8460    0.8896
H    3.1229   -0.8451   -0.8904


