%nprocshared=4
%mem=100MW
%chk=KFZMGEQAYNKOFK-UHFFFAOYSA-N.chk
#b3lyp/6-31+G(d) opt freq

gas opt

0 1
O    0.0000    1.3436   -0.0607
C   -0.0000   -0.0091    0.4000
C   -1.2492   -0.7244   -0.1183
C    1.2492   -0.7244   -0.1183
H    0.0000    1.4311   -1.0238
H   -0.0000   -0.0217    1.4899
H   -1.2492   -0.7118   -1.2082
H   -1.2492   -1.7562    0.2331
H   -2.1392   -0.2148    0.2509
H    2.1392   -0.2148    0.2509
H    1.2492   -1.7562    0.2331
H    1.2492   -0.7118   -1.2082


