%nprocshared=4
%mem=100MW
%chk=KGVPNLBXJKTABS-UHFFFAOYSA-N.chk
#b3lyp/6-31+G(d) opt freq

gas opt

0 1
O    2.3914   -0.4883   -0.0367
C    1.0859   -0.1182   -0.0200
N    0.6168    1.1008   -0.0062
O   -0.5923    1.1102    0.0061
C   -1.0982   -0.1315    0.0020
C   -2.5568   -0.5100    0.0140
C   -0.0433   -0.9781   -0.0203
H    2.7791   -0.6023    0.8418
H   -3.1665    0.3935    0.0273
H   -2.7886   -1.0916   -0.8782
H   -2.7704   -1.1055    0.9016
H   -0.0571   -2.0580   -0.0298


