%nprocshared=4
%mem=100MW
%chk=KHNYNFUTFKJLDD-UHFFFAOYSA-N.chk
#b3lyp/6-31+G(d) opt freq

gas opt

0 1
C   -1.7791    0.0926   -0.0046
C   -3.0925    0.5689   -0.0001
C   -3.2737    1.9623   -0.0051
C   -2.1711    2.7735   -0.0120
C   -0.8672    2.2829   -0.0141
C   -0.6457    0.9139   -0.0094
C    0.5163    0.0102   -0.0081
C    1.9110    0.2395   -0.0014
C    2.8004   -0.8627   -0.0061
C    2.2868   -2.1731   -0.0173
C    0.9458   -2.3844   -0.0191
C    0.0393   -1.3147   -0.0119
C   -1.4357   -1.2632    0.0014
C   -2.4810   -2.1719    0.0163
C   -3.7976   -1.7136    0.0265
C   -4.1247   -0.3851    0.0086
C    4.1857   -0.6289    0.0022
C    4.6545    0.6495    0.0164
C    3.7791    1.7329    0.0213
C    2.4302    1.5429    0.0120
H   -4.2669    2.3865   -0.0038
H   -2.3189    3.8433   -0.0165
H   -0.0313    2.9667   -0.0188
H    2.9632   -3.0150   -0.0249
H    0.5696   -3.3968   -0.0263
H   -2.2767   -3.2324    0.0196
H   -4.5961   -2.4407    0.0384
H   -5.1590   -0.0744    0.0176
H    4.8759   -1.4596   -0.0022
H    5.7200    0.8259    0.0243
H    4.1753    2.7375    0.0326
H    1.7631    2.3923    0.0142


