%nprocshared=4
%mem=100MW
%chk=KIEDNEWSYUYDSN-UHFFFAOYSA-N.chk
#b3lyp/6-31+G(d) opt freq

gas opt

0 1
Cl   -1.6877   -2.1938   -0.0621
C   -2.1166   -0.5121   -0.1004
C   -1.4294    0.3955    0.6863
C   -0.3082   -0.0756    1.5762
N    0.9082   -0.2495    0.7785
C    1.6681    0.7674    0.3258
O    1.4762    1.9487    0.5225
C    2.8074    0.1649   -0.4747
C    2.9854    0.9025   -1.8033
C    4.1070    0.1858    0.3325
C    2.3304   -1.2861   -0.7139
O    1.4330   -1.5055    0.3937
C   -1.7713    1.7341    0.6554
C   -2.8000    2.1666   -0.1610
C   -3.4870    1.2604   -0.9467
C   -3.1416   -0.0779   -0.9216
H   -0.1284    0.6639    2.3565
H   -0.5821   -1.0266    2.0331
H    3.2334    1.9460   -1.6091
H    3.7906    0.4375   -2.3720
H    2.0590    0.8496   -2.3752
H    3.9678   -0.3702    1.2596
H    4.9045   -0.2743   -0.2509
H    4.3745    1.2168    0.5638
H    1.8048   -1.3688   -1.6653
H    3.1692   -1.9810   -0.6724
H   -1.2351    2.4426    1.2694
H   -3.0670    3.2128   -0.1845
H   -4.2906    1.5987   -1.5839
H   -3.6785   -0.7859   -1.5355


