%nprocshared=4
%mem=100MW
%chk=KIGQVWWOESIMBG-UHFFFAOYSA-N.chk
#b3lyp/6-31+G(d) opt freq

gas opt

0 1
O    0.0705   -1.4415   -1.2236
C    0.1488   -1.8647   -0.0946
O    0.3465   -3.1751    0.1187
C    0.0305   -0.9205    1.0739
N   -0.0616    0.4601    0.5805
C    1.1317    0.8224   -0.1958
C    2.3523    0.8462    0.7264
C    3.5480    1.2092   -0.0515
N    4.4708    1.4894   -0.6519
C   -1.2838    0.6560   -0.2105
C   -2.4968    0.6771    0.7217
C   -3.7061    0.9981   -0.0538
N   -4.6393    1.2459   -0.6522
H    0.4201   -3.7408   -0.6621
H   -0.8646   -1.1620    1.6471
H    0.9085   -1.0204    1.7121
H    1.2877    0.0882   -0.9862
H    0.9915    1.8086   -0.6385
H    2.1963    1.5804    1.5168
H    2.4925   -0.1400    1.1691
H   -1.2214    1.6027   -0.7472
H   -1.3889   -0.1605   -0.9250
H   -2.6135   -0.3010    1.1884
H   -2.3488    1.4326    1.4934


