%nprocshared=4
%mem=100MW
%chk=KIVUHCNVDWYUNP-UHFFFAOYSA-N.chk
#b3lyp/6-31+G(d) opt freq

gas opt

0 1
N    2.0699    3.0239   -0.0006
C    1.4773    1.7638   -0.0008
C    2.3140    0.5667   -0.0007
C    1.7011   -0.7066   -0.0005
C    0.2387   -0.7890   -0.0004
C   -0.5140    0.4006   -0.0005
C   -1.9765    0.3009   -0.0003
C   -2.5735   -0.9807    0.0000
C   -1.7595   -2.1335   -0.0004
C   -0.4106   -2.0368    0.0002
C   -3.9732   -1.0838    0.0004
C   -4.7340    0.0473    0.0003
C   -4.1429    1.3064   -0.0001
C   -2.7847    1.4411   -0.0014
C    0.1204    1.6529    0.0045
C    2.4968   -1.8561   -0.0000
C    3.8564   -1.7359    0.0004
C    4.4612   -0.4836    0.0003
C    3.7118    0.6562   -0.0002
H    3.0365    3.1053   -0.0003
H    1.5162    3.8203   -0.0047
H   -2.2217   -3.1096   -0.0003
H    0.1825   -2.9395   -0.0002
H   -4.4455   -2.0551    0.0003
H   -5.8108   -0.0354    0.0002
H   -4.7664    2.1883   -0.0002
H   -2.3367    2.4238   -0.0012
H   -0.4820    2.5492    0.0049
H    2.0382   -2.8339    0.0004
H    4.4702   -2.6245    0.0011
H    5.5389   -0.4125    0.0006
H    4.1938    1.6227   -0.0002


