%nprocshared=4
%mem=100MW
%chk=KIWUVOGUEXMXSV-UHFFFAOYSA-N.chk
#b3lyp/6-31+G(d) opt freq

gas opt

0 1
S   -2.3858   -0.5682   -0.0008
C   -0.7286   -0.1384   -0.0007
S   -0.0753    1.5097    0.0004
C    1.6662    0.9651   -0.0002
C    1.5513   -0.5435   -0.0013
O    2.5138   -1.2809   -0.0015
N    0.3042   -0.9837    0.0044
H    2.1786    1.3133   -0.8971
H    2.1788    1.3120    0.8970
H    0.1370   -1.9392    0.0045


