%nprocshared=4
%mem=100MW
%chk=KJONHKAYOJNZEC-UHFFFAOYSA-N.chk
#b3lyp/6-31+G(d) opt freq

gas opt

0 1
O    3.3855   -1.8891   -0.8169
N    3.5951   -0.7793   -0.3609
O    4.7372   -0.4158   -0.1440
C    2.4623    0.1299   -0.0760
C    1.1727   -0.2790   -0.3265
C    0.0904    0.5732   -0.0603
C   -1.2610    0.0722   -0.3560
N   -2.2052    0.7696   -0.8809
C   -2.0194    2.1752   -1.2390
C   -1.7521    2.9656    0.0127
O   -2.5408    3.8231    0.3495
N   -0.6725    2.7480    0.7604
C    0.3335    1.8416    0.4633
C    1.6486    2.2394    0.7112
C    2.7008    1.3894    0.4478
C   -1.5557   -1.3414   -0.0248
C   -0.8106   -2.0016    0.9521
C   -1.0902   -3.3181    1.2565
C   -2.1068   -3.9832    0.5947
C   -2.8494   -3.3337   -0.3752
C   -2.5831   -2.0155   -0.6844
H    0.9922   -1.2637   -0.7317
H   -1.1724    2.2699   -1.9185
H   -2.9212    2.5509   -1.7225
H   -0.5823    3.2645    1.5765
H    1.8428    3.2215    1.1164
H    3.7137    1.7087    0.6438
H   -0.0163   -1.4836    1.4689
H   -0.5139   -3.8304    2.0127
H   -2.3214   -5.0138    0.8359
H   -3.6418   -3.8581   -0.8885
H   -3.1637   -1.5094   -1.4415


