%nprocshared=4
%mem=100MW
%chk=KJVQYDYPDFFJMP-UHFFFAOYSA-N.chk
#b3lyp/6-31+G(d) opt freq

gas opt

0 1
S    0.3387   -1.8550   -0.1526
O    0.9259   -2.9647    0.5129
O   -0.0709   -1.8922   -1.5128
N   -1.0001   -1.4368    0.7277
C   -1.7748   -0.3550    0.3393
S   -1.4665    0.6318   -1.0224
C   -2.8881    1.6045   -0.6532
C   -3.4572    1.1060    0.4446
C   -4.7045    1.6930    1.0535
N   -2.8423    0.0527    0.9526
C    1.4887   -0.5271   -0.0155
C    2.4170   -0.5215    1.0095
C    3.3198    0.5178    1.1199
C    3.2947    1.5582    0.1998
N    4.2067    2.6106    0.3082
C    2.3610    1.5494   -0.8286
C    1.4647    0.5042   -0.9364
H   -1.2423   -1.9489    1.5151
H   -3.2377    2.4562   -1.2177
H   -5.5815    1.2128    0.6193
H   -4.6956    1.5272    2.1308
H   -4.7387    2.7634    0.8509
H    2.4357   -1.3305    1.7247
H    4.0443    0.5218    1.9209
H    4.8584    2.6155    1.0266
H    4.1882    3.3365   -0.3349
H    2.3387    2.3567   -1.5456
H    0.7387    0.4965   -1.7360


