%nprocshared=4
%mem=100MW
%chk=KPQZUUQMTUIKBP-UHFFFAOYSA-N.chk
#b3lyp/6-31+G(d) opt freq

gas opt

0 1
O    1.4239   -2.0093   -0.3704
N    1.9854   -0.9882   -0.0160
O    3.1551   -1.0223    0.3221
C    1.2480    0.2953   -0.0021
N   -0.0595    0.4890   -0.3576
C   -0.9946   -0.5375   -0.8247
C   -1.7267   -1.1439    0.3742
O   -2.5402   -0.1440    0.9911
C   -2.6105   -2.2996   -0.0992
C   -0.3267    1.8030   -0.1971
C   -1.6500    2.4700   -0.4707
N    0.7509    2.3994    0.2343
C    1.7330    1.4958    0.3684
H   -1.7193   -0.0872   -1.5031
H   -0.4442   -1.3195   -1.3478
H   -0.9982   -1.5152    1.0949
H   -3.2125    0.2318    0.4065
H   -1.9900   -3.0623   -0.5698
H   -3.1320   -2.7317    0.7548
H   -3.3390   -1.9283   -0.8200
H   -2.2591    2.4534    0.4332
H   -1.4802    3.5027   -0.7754
H   -2.1680    1.9365   -1.2677
H    2.7384    1.6968    0.7078


