%nprocshared=4
%mem=100MW
%chk=KQBFUDNJKCZEDQ-UHFFFAOYSA-N.chk
#b3lyp/6-31+G(d) opt freq

gas opt

0 1
Cl    0.8025   -2.3879    0.2524
C    1.4864   -0.8163   -0.0234
C    2.8536   -0.6716   -0.1681
Cl    3.8872   -2.0633   -0.0745
C    3.3999    0.5820   -0.3881
Cl    5.1176    0.7573   -0.5690
C    2.5812    1.6955   -0.4647
C    1.2141    1.5620   -0.3215
Cl    0.1893    2.9599   -0.4186
C    0.6575    0.3016   -0.1051
C   -0.8104    0.1527    0.0493
C   -1.3933    0.2387    1.3136
Cl   -0.4021    0.5210    2.7106
C   -2.7602    0.0993    1.4521
C   -3.5516   -0.1253    0.3390
Cl   -5.2694   -0.2996    0.5197
C   -2.9776   -0.2110   -0.9189
Cl   -3.9770   -0.4924   -2.3102
C   -1.6120   -0.0678   -1.0686
H    3.0124    2.6707   -0.6364
H   -3.2125    0.1654    2.4307
H   -1.1654   -0.1348   -2.0497


