%nprocshared=4
%mem=100MW
%chk=KSUUMAWCGDNLFK-UHFFFAOYSA-N.chk
#b3lyp/6-31+G(d) opt freq

gas opt

0 1
O   -2.9115   -1.1274    0.6585
C   -2.8109   -0.2391   -0.1648
N   -1.5919    0.1848   -0.5532
C   -0.4845   -0.3765   -0.0287
O   -0.5830   -1.2011    0.8545
C    0.8762    0.0211   -0.5400
C    1.3226    1.3124    0.1485
C    0.3843    2.4534   -0.2498
C    1.2790    1.1225    1.6661
C    1.8806   -1.0924   -0.2361
C    3.2006   -0.7699   -0.8876
C    4.2960   -0.7421   -0.1696
N   -3.9182    0.3184   -0.6934
H   -1.5116    0.8938   -1.2103
H    0.8269    0.1819   -1.6170
H    2.3400    1.5548   -0.1583
H   -0.6229    2.2366    0.1061
H    0.7347    3.3843    0.1959
H    0.3726    2.5520   -1.3353
H    2.0067    0.3655    1.9586
H    1.5185    2.0657    2.1573
H    0.2809    0.8011    1.9635
H    2.0178   -1.1735    0.8422
H    1.5041   -2.0379   -0.6266
H    3.2436   -0.5616   -1.9465
H    4.2530   -0.9504    0.8892
H    5.2420   -0.5110   -0.6366
H   -4.7955    0.0105   -0.4168
H   -3.8379    1.0274   -1.3505


