%nprocshared=4
%mem=100MW
%chk=KUAZQDVKQLNFPE-UHFFFAOYSA-N.chk
#b3lyp/6-31+G(d) opt freq

gas opt

0 1
S    0.8779   -0.5386    1.3010
S   -0.8779    0.5386    1.3010
C   -1.7270   -0.2768    0.0580
S   -0.9979   -1.5963   -0.7534
N   -2.9694    0.1201   -0.2819
C   -3.6959   -0.5777   -1.3456
C   -3.5932    1.2492    0.4124
C    1.7270    0.2768    0.0580
S    0.9979    1.5963   -0.7533
N    2.9694   -0.1201   -0.2819
C    3.6959    0.5777   -1.3456
C    3.5932   -1.2492    0.4124
H   -4.2723   -1.3965   -0.9151
H   -4.3705    0.1195   -1.8426
H   -2.9855   -0.9752   -2.0705
H   -3.3517    2.1751   -0.1097
H   -4.6745    1.1129    0.4291
H   -3.2176    1.2998    1.4344
H    4.2723    1.3965   -0.9151
H    4.3705   -0.1195   -1.8426
H    2.9855    0.9752   -2.0705
H    3.3517   -2.1751   -0.1097
H    4.6745   -1.1129    0.4291
H    3.2176   -1.2998    1.4344


