%nprocshared=4
%mem=100MW
%chk=KUCQYCKVKVOKAY-UHFFFAOYSA-N.chk
#b3lyp/6-31+G(d) opt freq

gas opt

0 1
Cl    4.6883   -2.8834    0.2997
C    4.0335   -1.2853    0.1241
C    3.8206   -0.4980    1.2416
C    3.2992    0.7743    1.1011
C    2.9900    1.2600   -0.1557
C    2.4211    2.6472   -0.3082
C    1.5140    2.6939   -1.5394
C    0.3719    1.6900   -1.3698
C   -0.4407    2.0477   -0.1238
C   -1.5657    1.0589    0.0432
C   -2.8385    1.5011    0.1406
O   -3.0969    2.8285    0.0887
C   -3.9546    0.5364    0.3039
O   -5.0573    0.9213    0.6363
C   -3.7050   -0.9003    0.0555
C   -2.3763   -1.3533   -0.0462
C   -1.2714   -0.3784    0.0929
O   -0.1298   -0.7641    0.2554
C   -2.1220   -2.6968   -0.2798
C   -3.1803   -3.5844   -0.4118
C   -4.4842   -3.1402   -0.3121
C   -4.7543   -1.8001   -0.0781
C    0.4664    2.0010    1.1074
C    1.6084    3.0049    0.9378
C    3.2030    0.4740   -1.2728
C    3.7297   -0.7963   -1.1340
H    4.0614   -0.8776    2.2236
H    3.1329    1.3890    1.9734
H    3.2347    3.3623   -0.4290
H    1.1025    3.6972   -1.6497
H    2.0929    2.4390   -2.4271
H   -0.2743    1.7233   -2.2470
H    0.7834    0.6867   -1.2596
H   -0.8522    3.0510   -0.2341
H   -4.0349    3.0499    0.1666
H   -1.1046   -3.0504   -0.3590
H   -2.9829   -4.6305   -0.5943
H   -5.2991   -3.8412   -0.4168
H   -5.7758   -1.4578   -0.0011
H   -0.1126    2.2558    1.9951
H    0.8779    0.9977    1.2177
H    2.2547    2.9716    1.8150
H    1.1969    4.0082    0.8276
H    2.9616    0.8541   -2.2544
H    3.8960   -1.4104   -2.0068


