%nprocshared=4
%mem=100MW
%chk=KVFJBIQWENJTDM-UHFFFAOYSA-N.chk
#b3lyp/6-31+G(d) opt freq

gas opt

0 1
C   -2.0793    0.0557    0.0035
C   -1.5187   -1.2863    0.0009
C   -0.1289   -1.4297    0.0003
C    0.6650   -0.2885    0.0000
C    2.1316   -0.4072    0.0014
C    2.9203    0.7621   -0.0054
C    2.2916    2.0793   -0.0109
C    0.9529    2.2219   -0.0078
C    0.0756    1.0540   -0.0022
C   -1.3070    1.2017    0.0028
C   -2.2463    2.3832    0.0098
C   -3.6661    1.7752    0.0116
C   -3.4566    0.2804    0.0009
C   -4.2787   -0.8015   -0.0051
C   -3.7608   -2.0991   -0.0139
C   -2.4243   -2.3653   -0.0026
C    4.3173    0.6445   -0.0065
C    4.8981   -0.5904    0.0016
C    4.1225   -1.7421    0.0099
C    2.7479   -1.6592    0.0104
H    0.3213   -2.4114    0.0004
H    2.9154    2.9609   -0.0172
H    0.5222    3.2123   -0.0099
H   -2.0914    2.9836    0.9062
H   -2.0965    2.9903   -0.8830
H   -4.2056    2.0772    0.9092
H   -4.2111    2.0847   -0.8802
H   -5.3488   -0.6562   -0.0027
H   -4.4514   -2.9294   -0.0198
H   -2.0661   -3.3841   -0.0082
H    4.9338    1.5312   -0.0140
H    5.9750   -0.6730    0.0012
H    4.6009   -2.7103    0.0163
H    2.1500   -2.5585    0.0164


