%nprocshared=4
%mem=100MW
%chk=KVZJLSYJROEPSQ-UHFFFAOYSA-N.chk
#b3lyp/6-31+G(d) opt freq

gas opt

0 1
C    0.5401   -1.5007   -1.0012
C    0.3490   -0.9795    0.4245
C    0.8874    0.4493    0.5216
C    2.3766    0.4581    0.1707
C    0.1277    1.3481   -0.4561
C   -1.3615    1.3393   -0.1051
C   -1.8999   -0.0895   -0.2022
C   -1.1402   -0.9883    0.7755
H    1.6010   -1.4945   -1.2512
H    0.1565   -2.5187   -1.0704
H   -0.0011   -0.8604   -1.6977
H    0.8902   -1.6199    1.1211
H    0.7513    0.8206    1.5374
H    2.5127    0.0868   -0.8450
H    2.7602    1.4760    0.2399
H    2.9178   -0.1822    0.8672
H    0.5113    2.3661   -0.3869
H    0.2639    0.9768   -1.4718
H   -1.4976    1.7107    0.9106
H   -1.9027    1.9797   -0.8017
H   -2.9608   -0.0958    0.0478
H   -1.7638   -0.4608   -1.2180
H   -1.5238   -2.0062    0.7063
H   -1.2763   -0.6170    1.7912


