%nprocshared=4
%mem=100MW
%chk=KXYFWLVSYHRZJL-UHFFFAOYSA-N.chk
#b3lyp/6-31+G(d) opt freq

gas opt

0 1
O    0.7462   -1.5224    0.7618
C    1.0572   -0.4659    0.2539
N    2.3581   -0.1414    0.1163
C    3.3964   -1.0648    0.5803
C    3.7777   -2.0160   -0.5559
C    4.4223   -1.2202   -1.6926
C    4.7698   -3.0587   -0.0368
C    2.7337    1.1348   -0.4973
C    2.8447    2.2088    0.5868
C    3.9950    1.8608    1.5336
C    3.1141    3.5662   -0.0657
C   -0.0108    0.4813   -0.2290
O   -1.3193   -0.0947    0.0247
C   -2.3903    0.6312   -0.3506
O   -2.2353    1.7157   -0.8753
C   -3.7532    0.1083   -0.1239
C   -4.8655    0.8581   -0.5116
C   -6.1353    0.3636   -0.2974
C   -6.3082   -0.8721    0.3006
C   -5.2104   -1.6202    0.6877
C   -3.9348   -1.1405    0.4738
H    4.2746   -0.4982    0.8899
H    3.0192   -1.6409    1.4252
H    2.8833   -2.5177   -0.9252
H    3.7155   -0.4774   -2.0624
H    5.3166   -0.7185   -1.3232
H    4.6939   -1.8978   -2.5020
H    4.3106   -3.6256    0.7730
H    5.0414   -3.7363   -0.8462
H    5.6642   -2.5569    0.3326
H    3.6941    1.0269   -1.0014
H    1.9738    1.4272   -1.2219
H    1.9122    2.2548    1.1494
H    4.9274    1.8147    0.9710
H    4.0741    2.6259    2.3059
H    3.8030    0.8937    1.9985
H    2.2946    3.8141   -0.7403
H    3.1932    4.3313    0.7066
H    4.0466    3.5201   -0.6284
H    0.0777    1.4295    0.3012
H    0.1104    0.6506   -1.2989
H   -4.7319    1.8231   -0.9778
H   -6.9965    0.9425   -0.5968
H   -7.3046   -1.2544    0.4663
H   -5.3524   -2.5836    1.1546
H   -3.0788   -1.7253    0.7764


