%nprocshared=4
%mem=100MW
%chk=KZJRKRQSDZGHEC-UHFFFAOYSA-N.chk
#b3lyp/6-31+G(d) opt freq

gas opt

0 1
F   -2.9917    0.4189   -0.0000
C   -1.7559   -0.2370   -0.0004
F   -1.6532   -1.0387    1.1415
F   -1.6533   -1.0377   -1.1430
C   -0.6461    0.7824    0.0000
O   -0.9100    1.9659    0.0006
C    0.7580    0.3416   -0.0002
C    1.7908    1.2846    0.0002
C    3.1038    0.8636   -0.0001
C    3.4009   -0.4881   -0.0012
C    2.3845   -1.4275   -0.0016
C    1.0664   -1.0225    0.0050
H    1.5605    2.3398    0.0003
H    3.9025    1.5906    0.0002
H    4.4313   -0.8116   -0.0022
H    2.6243   -2.4806   -0.0025
H    0.2744   -1.7567    0.0050


