%nprocshared=4
%mem=100MW
%chk=KZOFCELNVLSKGC-UHFFFAOYSA-N.chk
#b3lyp/6-31+G(d) opt freq

gas opt

0 1
O   -0.7075   -0.9372   -0.0086
C   -0.7880    0.2479    0.2365
N    0.3313    0.9746    0.4251
C    1.6452    0.3330    0.3340
C    2.7390    1.3724    0.5872
C    4.0905    0.7125    0.4935
C    4.7477    0.6554   -0.7219
C    5.9903    0.0496   -0.8096
O    6.6381   -0.0070   -2.0040
C    5.9785    0.5789   -3.1281
C    6.5746   -0.5009    0.3276
O    7.7946   -1.0963    0.2467
C    8.3328   -1.6394    1.4539
C    5.9110   -0.4403    1.5420
C    4.6731    0.1706    1.6237
C   -2.1393    0.9091    0.3240
N   -3.1864   -0.0851    0.0764
C   -4.5308    0.2942    0.1051
C   -5.5221   -0.6468   -0.1292
C   -6.8624   -0.2630   -0.0989
C   -7.9254   -1.2604   -0.3473
O   -7.6315   -2.4170   -0.5784
N   -9.2200   -0.8871   -0.3174
C   -7.1973    1.0660    0.1672
C   -6.2036    1.9949    0.3987
C   -4.8750    1.6136    0.3743
H    0.2669    1.9224    0.6211
H    1.7158   -0.4580    1.0807
H    1.7729   -0.0940   -0.6607
H    2.6683    2.1634   -0.1595
H    2.6113    1.7994    1.5819
H    4.2920    1.0829   -1.6028
H    5.0229    0.0800   -3.2893
H    5.8076    1.6384   -2.9375
H    6.6019    0.4652   -4.0150
H    7.6589   -2.4038    1.8406
H    9.3071   -2.0835    1.2499
H    8.4430   -0.8450    2.1922
H    6.3620   -0.8669    2.4257
H    4.1568    0.2175    2.5711
H   -2.2713    1.3359    1.3183
H   -2.2057    1.7004   -0.4227
H   -2.9464   -1.0068   -0.1075
H   -5.2569   -1.6734   -0.3349
H   -9.4545    0.0359   -0.1330
H   -9.9174   -1.5414   -0.4803
H   -8.2342    1.3670    0.1916
H   -6.4649    3.0225    0.6040
H   -4.1017    2.3451    0.5566


