%nprocshared=4
%mem=100MW
%chk=LAIUFBWHERIJIH-UHFFFAOYSA-N.chk
#b3lyp/6-31+G(d) opt freq

gas opt

0 1
C    1.0949   -0.0681   -0.2164
C   -0.1826    0.6014    0.2942
C   -1.4021   -0.1470   -0.2475
C   -2.6796    0.5225    0.2631
C   -3.8992   -0.2259   -0.2786
C    2.3103    0.7515    0.2216
C    3.5773    0.1528   -0.3925
C    1.1968   -1.4806    0.3626
H    1.0665   -0.1227   -1.3046
H   -0.1954    0.5764    1.3838
H   -0.2111    1.6367   -0.0458
H   -1.3894   -0.1220   -1.3371
H   -1.3737   -1.1822    0.0925
H   -2.6924    0.4975    1.3527
H   -2.7081    1.5578   -0.0769
H   -3.8864   -0.2009   -1.3682
H   -3.8707   -1.2611    0.0614
H   -4.8093    0.2511    0.0852
H    2.1947    1.7815   -0.1159
H    2.3892    0.7320    1.3086
H    3.4985    0.1723   -1.4794
H    4.4432    0.7367   -0.0804
H    3.6929   -0.8772   -0.0550
H    1.2252   -1.4260    1.4509
H    0.3309   -2.0645    0.0506
H    2.1069   -1.9576   -0.0011


