%nprocshared=4
%mem=100MW
%chk=LEBVLXFERQHONN-UHFFFAOYSA-N.chk
#b3lyp/6-31+G(d) opt freq

gas opt

0 1
O    0.2655   -0.1738    1.0648
C    0.2696    0.5148    0.0664
N    1.3628    0.5536   -0.7210
C    2.5323   -0.1061   -0.3274
C    3.7224    0.5994   -0.2075
C    3.7560    2.0772   -0.5007
C    4.8750   -0.0546    0.1813
C    4.8450   -1.4106    0.4505
C    3.6615   -2.1160    0.3321
C    2.5041   -1.4666   -0.0503
C    1.2147   -2.2360   -0.1787
C   -0.9498    1.3223   -0.2971
N   -2.1543    0.6316    0.1810
C   -2.2015   -0.7498   -0.3166
C   -3.5157   -1.4030    0.1160
C   -3.5648   -2.8418   -0.4022
C   -4.8790   -3.4950    0.0303
C   -3.3703    1.3665   -0.1902
C   -3.3524    2.7492    0.4653
C   -2.1097    3.5133   -0.0003
C   -0.8596    2.7038    0.3552
H    1.3388    1.0388   -1.5606
H    3.5463    2.6338    0.4127
H    4.7426    2.3511   -0.8746
H    3.0036    2.3157   -1.2524
H    5.8009    0.4935    0.2747
H    5.7478   -1.9200    0.7536
H    3.6413   -3.1750    0.5431
H    0.7478   -2.3288    0.8019
H    0.5415   -1.7068   -0.8530
H    1.4223   -3.2289   -0.5777
H   -1.0014    1.4348   -1.3800
H   -2.1383   -0.7464   -1.4047
H   -1.3634   -1.3127    0.0943
H   -3.5788   -1.4064    1.2042
H   -4.3537   -0.8400   -0.2948
H   -3.5017   -2.8384   -1.4904
H   -2.7267   -3.4047    0.0086
H   -4.9421   -3.4984    1.1185
H   -5.7171   -2.9320   -0.3805
H   -4.9140   -4.5200   -0.3388
H   -3.4104    1.4786   -1.2736
H   -4.2464    0.8145    0.1504
H   -4.2476    3.3003    0.1770
H   -3.3262    2.6379    1.5492
H   -2.1548    3.6588   -1.0796
H   -2.0701    4.4821    0.4975
H   -0.7942    2.5917    1.4374
H    0.0262    3.2223   -0.0118


