%nprocshared=4
%mem=100MW
%chk=LESVOLZBIFDZGS-UHFFFAOYSA-N.chk
#b3lyp/6-31+G(d) opt freq

gas opt

0 1
S   -2.4441    0.7162   -1.4731
P   -3.1151   -0.3611    0.2250
O   -4.4716   -0.8937   -0.0330
O   -2.1066   -1.5811    0.5196
C   -1.9290   -2.6782   -0.3786
O   -3.1575    0.6201    1.5008
C   -4.0331    1.7460    1.5879
C   -0.8733    1.4279   -0.9103
C    0.2015    0.3393   -0.8897
S    1.7347    1.0164   -0.1957
C    2.8685   -0.3985   -0.2534
C    4.2423    0.0406    0.1833
O    4.3689    1.0039    0.9092
N    5.3304   -0.6372   -0.2328
C    6.6660   -0.2104    0.1918
C    2.3620   -1.4965    0.6840
H   -1.5717   -2.3072   -1.3392
H   -1.1992   -3.3733    0.0366
H   -2.8806   -3.1911   -0.5184
H   -5.0612    1.4198    1.4309
H   -3.9429    2.2010    2.5743
H   -3.7630    2.4762    0.8250
H   -0.5709    2.2243   -1.5903
H   -0.9976    1.8348    0.0933
H   -0.1379   -0.4949   -0.2757
H    0.3855   -0.0089   -1.9061
H    2.9169   -0.7840   -1.2718
H    5.2292   -1.4077   -0.8134
H    6.8460    0.8100   -0.1466
H    6.7313   -0.2494    1.2791
H    7.4143   -0.8742   -0.2412
H    3.0432   -2.3467    0.6493
H    2.3136   -1.1110    1.7024
H    1.3682   -1.8141    0.3681


