%nprocshared=4
%mem=100MW
%chk=LFKDJXLFVYVEFG-UHFFFAOYSA-N.chk
#b3lyp/6-31+G(d) opt freq

gas opt

0 1
O   -1.2704   -1.1348   -0.0004
C   -1.3328    0.0787    0.0024
O   -0.2029    0.8109    0.0028
C    1.0538    0.0836   -0.0001
C    1.1327   -0.7933   -1.2514
C    2.2177    1.0767    0.0008
C    1.1353   -0.7988    1.2471
N   -2.5331    0.6918   -0.0006
H    1.0746   -0.1646   -2.1399
H    2.0761   -1.3392   -1.2536
H    0.3035   -1.5008   -1.2521
H    2.1615    1.7015    0.8923
H    3.1612    0.5308   -0.0013
H    2.1597    1.7054   -0.8877
H    0.3061   -1.5063    1.2464
H    2.0787   -1.3447    1.2449
H    1.0791   -0.1740    2.1385
H   -3.3471    0.1643   -0.0050
H   -2.5829    1.6605    0.0015


