%nprocshared=4
%mem=100MW
%chk=LFVLUOAHQIVABZ-UHFFFAOYSA-N.chk
#b3lyp/6-31+G(d) opt freq

gas opt

0 1
I   -3.6641   -0.1426    0.3215
C   -1.6371   -0.2223   -0.2022
C   -0.9668    0.9381   -0.5494
Cl   -1.8062    2.4577   -0.5499
C    0.3709    0.8877   -0.8953
C    1.0410   -0.3265   -0.8943
O    2.3563   -0.3782   -1.2336
P    3.3492    0.1727   -0.0923
S    2.6781    1.7685    0.5975
O    3.4658   -0.9155    1.0886
C    4.0095   -0.6128    2.3750
O    4.8054    0.4330   -0.7277
C    5.8143    1.2039   -0.0719
C    0.3669   -1.4888   -0.5458
Cl    1.2030   -3.0102   -0.5428
C   -0.9693   -1.4331   -0.1950
H    0.8934    1.7932   -1.1665
H    3.9825   -1.5054    3.0000
H    5.0409   -0.2781    2.2639
H    3.4199    0.1759    2.8422
H    6.7079    1.2381   -0.6951
H    5.4475    2.2170    0.0932
H    6.0569    0.7447    0.8863
H   -1.4941   -2.3372    0.0762


