%nprocshared=4
%mem=100MW
%chk=LHRCREOYAASXPZ-UHFFFAOYSA-N.chk
#b3lyp/6-31+G(d) opt freq

gas opt

0 1
C   -1.3878   -0.1624    0.0018
C   -2.8505   -0.2992    0.0007
C   -3.6522    0.8621   -0.0004
C   -3.0268    2.1804    0.0001
C   -1.6848    2.3103    0.0010
C   -0.8173    1.1357    0.0016
C    0.5704    1.2853    0.0014
C    1.3878    0.1625    0.0012
C    2.8505    0.2992    0.0003
C    3.6522   -0.8621   -0.0002
C    3.0268   -2.1805    0.0007
C    1.6847   -2.3103    0.0015
C    0.8173   -1.1356    0.0014
C   -0.5704   -1.2852   -0.0028
C    5.0477   -0.7316   -0.0013
C    5.6120    0.5110   -0.0016
C    4.8201    1.6524   -0.0010
C    3.4571    1.5569   -0.0005
C   -5.0478    0.7316   -0.0016
C   -5.6120   -0.5110   -0.0015
C   -4.8200   -1.6524   -0.0003
C   -3.4570   -1.5569    0.0004
H   -3.6474    3.0643   -0.0007
H   -1.2452    3.2968    0.0007
H    1.0079    2.2727    0.0011
H    3.6474   -3.0643    0.0004
H    1.2452   -3.2968    0.0019
H   -1.0079   -2.2726   -0.0061
H    5.6743   -1.6113   -0.0014
H    6.6876    0.6082   -0.0020
H    5.2871    2.6262   -0.0008
H    2.8512    2.4509   -0.0003
H   -5.6743    1.6112   -0.0022
H   -6.6876   -0.6083   -0.0021
H   -5.2870   -2.6263    0.0002
H   -2.8511   -2.4509    0.0013


