%nprocshared=4
%mem=100MW
%chk=LHXDLQBQYFFVNW-UHFFFAOYSA-N.chk
#b3lyp/6-31+G(d) opt freq

gas opt

0 1
O    0.0022   -2.0460    0.7588
C   -0.0168   -0.9420    0.2698
C    1.1786   -0.0836   -0.1176
C    2.0277    0.2338    1.1150
C    2.0238   -0.7948   -1.1763
C    0.5602    1.2235   -0.7018
C   -0.7358    0.6434   -1.3721
C   -1.2520   -0.1085   -0.0996
C   -2.5604   -0.8853   -0.2600
C   -1.2569    1.0529    0.9408
C   -0.0555    1.9455    0.5362
H    2.5159   -0.6761    1.4640
H    2.7836    0.9747    0.8544
H    1.3885    0.6290    1.9045
H    1.4095   -1.0020   -2.0525
H    2.8605   -0.1572   -1.4616
H    2.4034   -1.7318   -0.7688
H    1.2122    1.8183   -1.3415
H   -1.4199    1.4300   -1.6904
H   -0.5039   -0.0450   -2.1848
H   -2.4390   -1.6462   -1.0309
H   -2.8173   -1.3634    0.6853
H   -3.3570   -0.1995   -0.5485
H   -2.1868    1.6178    0.8756
H   -1.1189    0.6611    1.9485
H    0.6712    1.9960    1.3471
H   -0.3974    2.9450    0.2676


