%nprocshared=4
%mem=100MW
%chk=LJCFRMUKLSCNKV-UHFFFAOYSA-N.chk
#b3lyp/6-31+G(d) opt freq

gas opt

0 1
O    0.6160   -0.9889    1.4200
C    0.9531   -0.3097    0.4734
N    2.2614   -0.1091    0.2198
C    3.2765   -0.7114    1.0875
C    3.6479   -2.0961    0.5530
O    4.2742   -1.9614   -0.7243
C    4.6627   -3.2032   -1.3150
C    2.6685    0.7113   -0.9237
C    2.7923    2.1718   -0.4852
O    3.8521    2.2956    0.4654
C    4.0529    3.6278    0.9418
C   -0.0911    0.3047   -0.4229
O   -1.4133   -0.0608    0.0530
C   -2.4658    0.4111   -0.6428
O   -2.2840    1.1090   -1.6203
C   -3.8411    0.0800   -0.2170
C   -4.9343    0.5675   -0.9359
C   -6.2158    0.2541   -0.5331
C   -6.4193   -0.5411    0.5809
C   -5.3405   -1.0272    1.2981
C   -4.0535   -0.7266    0.9027
H    4.1635   -0.0780    1.1030
H    2.8803   -0.8065    2.0985
H    4.3361   -2.5804    1.2458
H    2.7466   -2.7010    0.4538
H    5.1301   -3.0153   -2.2816
H    5.3719   -3.7105   -0.6610
H    3.7825   -3.8311   -1.4530
H    3.6308    0.3614   -1.2976
H    1.9211    0.6309   -1.7129
H    3.0081    2.7948   -1.3532
H    1.8562    2.4950   -0.0297
H    4.8740    3.6375    1.6586
H    4.2949    4.2810    0.1034
H    3.1429    3.9812    1.4268
H    0.0124    1.3898   -0.4105
H    0.0428   -0.0614   -1.4408
H   -4.7769    1.1889   -1.8051
H   -7.0623    0.6305   -1.0882
H   -7.4247   -0.7831    0.8921
H   -5.5063   -1.6467    2.1671
H   -3.2123   -1.1066    1.4635


