%nprocshared=4
%mem=100MW
%chk=LKJPSUCKSLORMF-UHFFFAOYSA-N.chk
#b3lyp/6-31+G(d) opt freq

gas opt

0 1
Cl   -4.7365   -0.1698    0.1568
C   -3.0181    0.0527    0.0507
C   -2.1654   -0.8576    0.6498
C   -0.7979   -0.6826    0.5673
C   -0.2789    0.4078   -0.1181
N    1.1069    0.5873   -0.2037
C    1.9228   -0.4838   -0.2623
O    1.4528   -1.6026   -0.3386
N    3.2597   -0.3148   -0.2364
O    3.8070    0.9881   -0.1476
C    4.0169    1.4403    1.1916
C    4.1466   -1.4791   -0.3001
C   -1.1367    1.3196   -0.7189
C   -2.5033    1.1371   -0.6378
H   -2.5696   -1.7056    1.1828
H   -0.1328   -1.3930    1.0357
H    1.4798    1.4826   -0.2208
H    4.4379    2.4456    1.1739
H    3.0657    1.4541    1.7237
H    4.7072    0.7662    1.6988
H    4.3782   -1.7029   -1.3414
H    5.0690   -1.2632    0.2390
H    3.6524   -2.3376    0.1548
H   -0.7355    2.1685   -1.2525
H   -3.1709    1.8460   -1.1049


