%nprocshared=4
%mem=100MW
%chk=LKPLKUMXSAEKID-UHFFFAOYSA-N.chk
#b3lyp/6-31+G(d) opt freq

gas opt

0 1
Cl   -3.2583    0.0000   -0.0016
C   -1.5223    0.0000   -0.0018
C   -0.8300    1.1986   -0.0008
Cl   -1.6975    2.7023    0.0007
C    0.5545    1.1981   -0.0005
Cl    1.4230    2.7012    0.0007
C    1.2459   -0.0000   -0.0008
N    2.7261   -0.0000   -0.0000
O    3.3345   -0.0006    1.0551
O    3.3356    0.0006   -1.0545
C    0.5545   -1.1981   -0.0014
Cl    1.4229   -2.7012   -0.0012
C   -0.8300   -1.1986    0.0027
Cl   -1.6975   -2.7023    0.0020


