%nprocshared=4
%mem=100MW
%chk=LMHCYRULPLGEEZ-UHFFFAOYSA-N.chk
#b3lyp/6-31+G(d) opt freq

gas opt

0 1
I   -2.4677    0.0993   -0.0000
C   -0.5690   -0.9348    0.0000
C    0.5688    0.0880    0.0000
C    1.9124   -0.6438    0.0000
C    3.0503    0.3790    0.0000
C    4.3939   -0.3528   -0.0000
C    5.5317    0.6700    0.0000
C    6.8754   -0.0618   -0.0000
H   -0.4957   -1.5599    0.8900
H   -0.4957   -1.5599   -0.8900
H    0.4955    0.7130   -0.8900
H    0.4955    0.7130    0.8900
H    1.9857   -1.2689    0.8900
H    1.9857   -1.2689   -0.8900
H    2.9770    1.0040   -0.8900
H    2.9770    1.0040    0.8900
H    4.4672   -0.9778    0.8900
H    4.4672   -0.9778   -0.8900
H    5.4584    1.2951   -0.8900
H    5.4584    1.2951    0.8900
H    6.9487   -0.6868    0.8900
H    6.9487   -0.6868   -0.8900
H    7.6860    0.6669   -0.0000


