%nprocshared=4
%mem=100MW
%chk=LMINNBXUMGNKMM-UHFFFAOYSA-N.chk
#b3lyp/6-31+G(d) opt freq

gas opt

0 1
O    4.0818    0.2329    1.2602
C    4.5548    0.4665    0.1732
O    5.8104    0.9304    0.0732
C    3.7372    0.2310   -1.0707
C    2.3774   -0.2928   -0.6864
C    1.3402    0.5898   -0.4501
C    0.0814    0.1165   -0.0958
N   -0.9387    1.0352    0.1394
C   -0.5561    2.3935    0.5331
C   -2.2977    0.7514    0.0263
C   -2.7910   -0.5438    0.1536
S   -1.7037   -1.8939    0.4603
C   -0.1245   -1.2553    0.0176
C    0.9226   -2.1352   -0.2209
C    2.1691   -1.6542   -0.5766
C   -4.1540   -0.7809    0.0376
C   -5.0245    0.2657   -0.2059
C   -4.5374    1.5523   -0.3343
C   -3.1817    1.7964   -0.2195
H    6.2969    1.0618    0.8985
H    3.6249    1.1689   -1.6146
H    4.2417   -0.4984   -1.7044
H    1.5083    1.6528   -0.5408
H   -0.4370    3.0101   -0.3577
H   -1.3320    2.8196    1.1690
H    0.3856    2.3612    1.0812
H    0.7621   -3.1995   -0.1315
H    2.9812   -2.3418   -0.7615
H   -4.5358   -1.7862    0.1374
H   -6.0841    0.0775   -0.2958
H   -5.2176    2.3691   -0.5254
H   -2.8071    2.8043   -0.3208


