%nprocshared=4
%mem=100MW
%chk=LMTGCJANOQOGPI-UHFFFAOYSA-N.chk
#b3lyp/6-31+G(d) opt freq

gas opt

0 1
O   -1.5334   -1.6055   -0.2090
C   -1.9029   -0.4619   -0.0453
N   -0.9994    0.5366    0.0115
C   -1.4497    1.9294    0.0716
C    0.3687    0.2430    0.0130
C    1.3003    1.2674   -0.0923
C    2.6500    0.9743   -0.0905
C    3.0739   -0.3377    0.0154
C    2.1488   -1.3601    0.1204
C    0.7978   -1.0730    0.1255
C   -3.3726   -0.1567    0.0885
H   -1.4895    2.2538    1.1115
H   -0.7528    2.5607   -0.4796
H   -2.4420    2.0099   -0.3722
H    0.9699    2.2922   -0.1758
H    3.3750    1.7705   -0.1724
H    4.1299   -0.5644    0.0158
H    2.4830   -2.3837    0.2029
H    0.0757   -1.8719    0.2078
H   -3.6402   -0.1140    1.1443
H   -3.5884    0.8034   -0.3801
H   -3.9522   -0.9388   -0.4019


