%nprocshared=4
%mem=100MW
%chk=LMYRWZFENFIFIT-UHFFFAOYSA-N.chk
#b3lyp/6-31+G(d) opt freq

gas opt

0 1
S   -1.8089    0.0014   -0.1033
O   -2.1954   -1.2484   -0.6580
O   -2.1933    1.2510   -0.6600
N   -2.3444    0.0031    1.4638
C   -0.0476   -0.0000   -0.0526
C    0.6423   -1.1977   -0.0317
C    2.0240   -1.1988    0.0081
C    2.7159   -0.0023    0.0266
C    4.2223   -0.0035    0.0705
C    2.0261    1.1955    0.0044
C    0.6444    1.1966   -0.0394
H   -2.8993   -0.7236    1.7875
H   -2.1031    0.7309    2.0580
H    0.1017   -2.1326   -0.0462
H    2.5630   -2.1346    0.0251
H    4.6154   -0.0052   -0.9462
H    4.5713    0.8869    0.5935
H    4.5698   -0.8931    0.5959
H    2.5667    2.1303    0.0184
H    0.1055    2.1323   -0.0567


