%nprocshared=4
%mem=100MW
%chk=LNVGTRNKWNAINT-UHFFFAOYSA-N.chk
#b3lyp/6-31+G(d) opt freq

gas opt

0 1
S   -3.1810   -0.2882   -0.0535
O   -3.3313   -1.6352   -0.4805
O   -3.8245    0.8060   -0.6921
N   -3.6511   -0.2456    1.5338
C   -1.4536    0.0571   -0.0954
S   -0.7440    1.6569   -0.2402
C    0.8834    0.9814   -0.1938
C    2.1461    1.8046   -0.2852
O    1.9533    3.0308    0.4228
C    3.3466    1.0775    0.3031
C    3.5863   -0.2360   -0.4530
S    2.2597   -1.3902    0.0178
O    2.0638   -2.3734   -0.9892
O    2.3633   -1.7476    1.3891
C    0.8113   -0.3592   -0.0720
C   -0.4890   -0.8518   -0.0164
H   -4.0393   -1.0332    1.9459
H   -3.5382    0.5669    2.0514
H    2.3478    2.0288   -1.3327
H    1.2287    3.5725    0.0813
H    4.2301    1.7102    0.2182
H    3.1586    0.8605    1.3546
H    3.5556   -0.0554   -1.5275
H    4.5546   -0.6519   -0.1745
H   -0.7000   -1.9065    0.0812


