%nprocshared=4
%mem=100MW
%chk=LPAGFVYQRIESJQ-UHFFFAOYSA-N.chk
#b3lyp/6-31+G(d) opt freq

gas opt

0 1
N    1.5149   -1.1521   -0.0001
C    0.2050   -0.6699   -0.0004
C    0.1704    0.7161   -0.0003
C   -1.0371    1.3867   -0.0002
C   -2.2248    0.6786    0.0003
C   -2.2014   -0.7037    0.0002
C   -0.9986   -1.3777   -0.0003
C    1.5917    1.2324    0.0001
C    2.4627   -0.0346    0.0002
H    1.7617   -2.0902    0.0036
H   -1.0537    2.4666   -0.0001
H   -3.1684    1.2041    0.0011
H   -3.1285   -1.2576    0.0006
H   -0.9873   -2.4576   -0.0004
H    1.7816    1.8244   -0.8953
H    1.7811    1.8243    0.8956
H    3.0842   -0.0661    0.8951
H    3.0846   -0.0660   -0.8943


