%nprocshared=4
%mem=100MW
%chk=LQLIEICEYDIWLO-UHFFFAOYSA-N.chk
#b3lyp/6-31+G(d) opt freq

gas opt

0 1
O    1.0449   -2.0033    1.5049
C    0.8662   -0.8682    1.1170
C    2.0374   -0.0921    0.5818
C    2.8610   -0.9887   -0.3448
C    4.1193   -0.2416   -0.7914
C    5.0152    0.0188    0.4212
C    4.8791   -1.0884   -1.8145
O    1.5719    1.0456   -0.1481
C    0.6029    1.8151    0.5736
O    0.3290    3.0262   -0.1337
C   -0.6811    0.9923    0.6991
C   -1.3585    0.8958   -0.6694
C   -2.6833    0.1919   -0.5257
C   -3.8290    0.9211   -0.2675
C   -5.0441    0.2755   -0.1356
C   -5.1137   -1.0993   -0.2623
C   -3.9682   -1.8284   -0.5213
C   -2.7537   -1.1823   -0.6575
N   -0.3678   -0.3526    1.1755
H    2.6608    0.2412    1.4115
H    3.1468   -1.8961    0.1872
H    2.2655   -1.2524   -1.2189
H    3.8362    0.7084   -1.2447
H    4.4739    0.6220    1.1500
H    5.2984   -0.9312    0.8744
H    5.9116    0.5510    0.1030
H    4.2408   -1.2739   -2.6783
H    5.7755   -0.5562   -2.1326
H    5.1622   -2.0384   -1.3612
H    0.9879    2.0502    1.5658
H    1.1034    3.5913   -0.2605
H   -1.3557    1.4791    1.4033
H   -1.5208    1.8980   -1.0660
H   -0.7207    0.3339   -1.3517
H   -3.7746    1.9952   -0.1686
H   -5.9391    0.8451    0.0667
H   -6.0630   -1.6038   -0.1585
H   -4.0225   -2.9025   -0.6199
H   -1.8587   -1.7519   -0.8599
H   -1.0802   -0.8906    1.5550


