%nprocshared=4
%mem=100MW
%chk=LQZZUXJYWNFBMV-UHFFFAOYSA-N.chk
#b3lyp/6-31+G(d) opt freq

gas opt

0 1
O    7.3405   -0.3701   -0.0000
C    6.1758    0.4578    0.0000
C    4.9244   -0.4225   -0.0000
C    3.6773    0.4639    0.0000
C    2.4259   -0.4163   -0.0000
C    1.1788    0.4701    0.0000
C   -0.0726   -0.4102   -0.0000
C   -1.3196    0.4762   -0.0000
C   -2.5710   -0.4040    0.0000
C   -3.8181    0.4824   -0.0000
C   -5.0695   -0.3979    0.0000
C   -6.3166    0.4885   -0.0000
C   -7.5680   -0.3917    0.0000
H    8.1729    0.1220    0.0000
H    6.1773    1.0871    0.8900
H    6.1773    1.0871   -0.8900
H    4.9228   -1.0518   -0.8900
H    4.9228   -1.0518    0.8900
H    3.6789    1.0932    0.8900
H    3.6789    1.0932   -0.8900
H    2.4244   -1.0456   -0.8900
H    2.4244   -1.0456    0.8900
H    1.1804    1.0994    0.8900
H    1.1804    1.0994   -0.8900
H   -0.0741   -1.0395   -0.8900
H   -0.0741   -1.0395    0.8900
H   -1.3181    1.1055    0.8900
H   -1.3181    1.1055   -0.8900
H   -2.5726   -1.0334   -0.8900
H   -2.5726   -1.0334    0.8900
H   -3.8166    1.1117    0.8900
H   -3.8166    1.1117   -0.8900
H   -5.0711   -1.0272   -0.8900
H   -5.0711   -1.0272    0.8900
H   -6.3150    1.1178    0.8900
H   -6.3150    1.1178   -0.8900
H   -8.4564    0.2398   -0.0000
H   -7.5695   -1.0211   -0.8900
H   -7.5695   -1.0211    0.8900


