%nprocshared=4
%mem=100MW
%chk=LSPHULWDVZXLIL-UHFFFAOYSA-N.chk
#b3lyp/6-31+G(d) opt freq

gas opt

0 1
O    2.1428    1.7144    0.3862
C    1.9894    0.5203    0.4886
O    2.5091   -0.1355    1.5381
C    1.2094   -0.2318   -0.5588
C    2.0348   -1.4092   -1.0815
C   -0.1163   -0.7397    0.0348
C   -0.1945   -2.2630   -0.0847
C   -0.2269   -0.3232    1.5028
C   -1.2462   -0.0864   -0.7875
C   -2.4041    0.2797    0.1049
O   -2.4896    1.3975    0.5555
O   -3.3403   -0.6361    0.3992
C   -0.5959    1.1875   -1.3818
C    0.8399    0.7121   -1.7217
H    2.9979    0.3902    2.1861
H    2.2592   -2.0890   -0.2596
H    1.4677   -1.9391   -1.8468
H    2.9656   -1.0383   -1.5107
H    0.6368   -2.7132    0.4579
H   -1.1363   -2.6128    0.3381
H   -0.1396   -2.5483   -1.1353
H   -0.1229    0.7589    1.5823
H   -1.1987   -0.6245    1.8937
H    0.5622   -0.8073    2.0783
H   -1.5753   -0.7555   -1.5826
H   -4.0639   -0.3545    0.9756
H   -1.1209    1.5050   -2.2827
H   -0.5728    1.9896   -0.6440
H    1.5240    1.5599   -1.7575
H    0.8490    0.1731   -2.6690


