%nprocshared=4
%mem=100MW
%chk=LSXKDWGTSHCFPP-UHFFFAOYSA-N.chk
#b3lyp/6-31+G(d) opt freq

gas opt

0 1
Br   -3.0178    0.1351   -0.0000
C   -1.3109   -0.8403    0.0000
C   -0.1524    0.1590    0.0000
C    1.1760   -0.6001    0.0000
C    2.3345    0.3992    0.0000
C    3.6629   -0.3599   -0.0000
C    4.8214    0.6395    0.0000
C    6.1498   -0.1197   -0.0000
H   -1.2504   -1.4667    0.8900
H   -1.2504   -1.4667   -0.8900
H   -0.2129    0.7854   -0.8900
H   -0.2129    0.7854    0.8900
H    1.2365   -1.2265    0.8900
H    1.2365   -1.2265   -0.8900
H    2.2740    1.0256   -0.8900
H    2.2740    1.0256    0.8900
H    3.7234   -0.9863    0.8900
H    3.7234   -0.9863   -0.8900
H    4.7609    1.2658   -0.8900
H    4.7609    1.2658    0.8900
H    6.2103   -0.7461    0.8900
H    6.2103   -0.7461   -0.8900
H    6.9752    0.5923   -0.0000


