%nprocshared=4
%mem=100MW
%chk=LUALIOATIOESLM-UHFFFAOYSA-N.chk
#b3lyp/6-31+G(d) opt freq

gas opt

0 1
O    7.0469    0.1665    1.4552
C    5.9505    0.4815    0.5947
C    5.8828   -0.5408   -0.5432
C    4.6712   -0.2344   -1.4264
N    3.4469   -0.2935   -0.6178
C    2.2524   -0.1411   -1.4592
C    1.0216    0.0422   -0.5690
C   -0.2225    0.2009   -1.4454
N   -1.4011    0.3764   -0.5930
C   -2.0909   -0.7672   -0.1968
C   -3.4377   -0.7262    0.1645
S   -4.3275    0.7930    0.1391
C   -3.0569    2.0111    0.1206
C   -1.7511    1.6744   -0.2303
C   -0.7699    2.6601   -0.2317
C   -1.0867    3.9617    0.1084
C   -2.3829    4.2930    0.4538
C   -3.3652    3.3203    0.4652
C   -4.0938   -1.8912    0.5512
C   -3.4221   -3.0933    0.5823
C   -2.0729   -3.1443    0.2236
C   -1.3686   -4.3908    0.2544
N   -0.8099   -5.3796    0.2788
C   -1.4120   -1.9754   -0.1649
C    3.4684    0.7116    0.4525
C    4.6441    0.4334    1.3919
H    7.1498    0.7746    2.1999
H    6.0884    1.4799    0.1796
H    6.7928   -0.4815   -1.1403
H    5.7851   -1.5433   -0.1264
H    4.7763    0.7628   -1.8539
H    4.6120   -0.9691   -2.2294
H    2.3694    0.7316   -2.1016
H    2.1259   -1.0314   -2.0752
H    0.9045   -0.8306    0.0734
H    1.1480    0.9325    0.0470
H   -0.1055    1.0737   -2.0878
H   -0.3490   -0.6894   -2.0614
H    0.2453    2.4071   -0.4996
H   -0.3193    4.7215    0.1046
H   -2.6281    5.3109    0.7188
H   -4.3777    3.5810    0.7360
H   -5.1369   -1.8524    0.8285
H   -3.9369   -3.9937    0.8834
H   -0.3689   -2.0139   -0.4422
H    3.5791    1.7044    0.0163
H    2.5355    0.6640    1.0143
H    4.5268   -0.5537    1.8391
H    4.6690    1.1888    2.1773


