%nprocshared=4
%mem=100MW
%chk=LWLJUMBEZJHXHV-UHFFFAOYSA-N.chk
#b3lyp/6-31+G(d) opt freq

gas opt

0 1
Cl   -0.4092    2.3335   -1.5696
C   -0.5457    0.8626   -0.5359
C   -1.9124    0.7988    0.1086
C   -2.4888   -0.3206   -0.3203
Cl   -4.0778   -0.8511    0.1351
C   -1.5971   -1.0435   -1.2312
C   -0.4511   -0.3859   -1.3842
Cl    0.8946   -0.8676   -2.3695
Cl   -1.9827   -2.5499   -2.0030
Cl   -2.5970    1.9626    1.1996
C    0.5470    0.8637    0.5350
Cl    0.4092    2.3359    1.5668
C    0.4509   -0.3837    1.3846
C    1.5962   -1.0428    1.2324
Cl    1.9799   -2.5489    2.0058
C    2.4888   -0.3219    0.3208
C    1.9137    0.8003   -0.1094
Cl    2.6007    1.9620   -1.2013
Cl    4.0772   -0.8547   -0.1340
Cl   -0.8955   -0.8630    2.3701


