%nprocshared=4
%mem=100MW
%chk=LWULXYSYLOIDQY-UHFFFAOYSA-N.chk
#b3lyp/6-31+G(d) opt freq

gas opt

0 1
O    0.5263    2.9863   -1.5542
N    0.4323    2.4924   -0.4448
O    0.8064    3.1152    0.5327
C   -0.1420    1.1376   -0.2840
C    0.6838    0.0235   -0.3289
O    2.0210    0.1746   -0.5206
C    2.7618    0.4716    0.5590
O    2.2340    0.5926    1.6392
C    4.2516    0.6539    0.4236
C    0.1426   -1.2446   -0.1774
C    1.0367   -2.4568   -0.2252
C    0.1811   -3.7240   -0.1719
C    1.8465   -2.4424   -1.5232
C    1.9903   -2.4346    0.9711
C   -1.2169   -1.3955    0.0177
C   -2.0376   -0.2839    0.0616
N   -3.4937   -0.4483    0.2709
O   -4.1021    0.3440    0.9677
O   -4.0834   -1.3760   -0.2538
C   -1.4997    0.9818   -0.0834
C   -2.3972    2.1914   -0.0351
H    4.5426    0.5072   -0.6165
H    4.5245    1.6611    0.7386
H    4.7653   -0.0746    1.0509
H   -0.4983   -3.7399   -1.0241
H    0.8278   -4.6008   -0.2064
H   -0.3958   -3.7343    0.7529
H    2.4560   -1.5396   -1.5612
H    2.4932   -3.3191   -1.5578
H    1.1671   -2.4582   -2.3755
H    1.4185   -2.2990    1.8891
H    2.5356   -3.3772    1.0186
H    2.6962   -1.6118    0.8578
H   -1.6387   -2.3826    0.1358
H   -2.5585    2.4830    1.0027
H   -1.9279    3.0139   -0.5748
H   -3.3545    1.9522   -0.4983


