%nprocshared=4
%mem=100MW
%chk=LYCAIKOWRPUZTN-UHFFFAOYSA-N.chk
#b3lyp/6-31+G(d) opt freq

gas opt

0 1
O    1.4269    0.5396    0.1698
C    0.7017   -0.5967   -0.3046
C   -0.7017   -0.5967    0.3046
O   -1.4269    0.5396   -0.1698
H    2.3275    0.6040   -0.1764
H    0.6263   -0.5518   -1.3911
H    1.2240   -1.5082   -0.0140
H   -1.2240   -1.5082    0.0140
H   -0.6263   -0.5518    1.3911
H   -2.3275    0.6040    0.1764


