%nprocshared=4
%mem=100MW
%chk=MBAIEZXRGAOPKH-UHFFFAOYSA-N.chk
#b3lyp/6-31+G(d) opt freq

gas opt

0 1
C    0.7072    0.0002    0.0529
C   -0.7070    0.0011   -0.0503
C   -1.3920    1.2267   -0.1020
C   -0.6931    2.3932   -0.0532
C    0.6971    2.3923    0.0477
C    1.3941    1.2248    0.1013
C    2.8969    1.2470    0.2113
C    3.4729   -0.0030   -0.4588
C    2.8949   -1.2497    0.2156
C    1.3927   -1.2254    0.0987
C    0.6938   -2.3920    0.0484
C   -0.6959   -2.3910   -0.0583
C   -1.3940   -1.2236   -0.0982
C   -2.8964   -1.2456   -0.2136
C   -3.4760   -0.0048    0.4704
C   -2.8948    1.2508   -0.2116
H   -1.2232    3.3333   -0.0936
H    1.2287    3.3317    0.0842
H    3.2847    2.1369   -0.2844
H    3.1845    1.2613    1.2626
H    3.2069   -0.0046   -1.5159
H    4.5581   -0.0037   -0.3561
H    3.2811   -2.1419   -0.2772
H    3.1829   -1.2610    1.2668
H    1.2237   -3.3321    0.0914
H   -1.2274   -3.3304   -0.0965
H   -3.1803   -1.2469   -1.2659
H   -3.2851   -2.1421    0.2695
H   -4.5607   -0.0037    0.3638
H   -3.2135   -0.0162    1.5282
H   -3.2776    2.1435    0.2831
H   -3.1872    1.2627   -1.2616


