%nprocshared=4
%mem=100MW
%chk=MBRLOUHOWLUMFF-UHFFFAOYSA-N.chk
#b3lyp/6-31+G(d) opt freq

gas opt

0 1
O   -3.1525   -0.2871    0.3935
C   -4.4335    0.2855    0.1232
C   -2.0670    0.4948    0.1636
C   -0.7972   -0.0037    0.4065
C   -0.6227   -1.4084    0.9237
C   -0.4991   -2.3598   -0.2384
C    0.5297   -3.1670   -0.3174
C    1.6524   -3.0568    0.6817
C    0.5904   -4.2058   -1.4075
C    0.3123    0.7937    0.1717
O    1.5585    0.3276    0.4021
C    2.6427    1.0871    0.1803
O    3.7471    0.6240    0.4022
C    2.5360    2.4073   -0.3035
C    1.3110    2.9375   -0.5561
C    0.1324    2.1034   -0.3119
C   -1.1572    2.5903   -0.5521
C   -2.2385    1.7901   -0.3201
H   -5.2122   -0.4431    0.3488
H   -4.5738    1.1710    0.7432
H   -4.4917    0.5656   -0.9286
H    0.2787   -1.4614    1.5342
H   -1.4874   -1.6831    1.5278
H   -1.2586   -2.3763   -1.0060
H    1.3999   -3.6260    1.5763
H    2.5683   -3.4544    0.2445
H    1.8012   -2.0101    0.9471
H   -0.3030   -4.1341   -2.0279
H    1.4743   -4.0361   -2.0223
H    0.6437   -5.1986   -0.9608
H    3.4258    2.9956   -0.4724
H    1.2092    3.9466   -0.9272
H   -1.2965    3.5951   -0.9228
H   -3.2338    2.1661   -0.5055


