%nprocshared=4
%mem=100MW
%chk=MCOQHIWZJUDQIC-UHFFFAOYSA-N.chk
#b3lyp/6-31+G(d) opt freq

gas opt

0 1
Cl   -7.1267   -0.6165    0.1630
C   -6.0049    0.6903   -0.3707
C   -4.6138    0.2651   -0.1453
C   -3.5043   -0.0740    0.0345
C   -2.1132   -0.4992    0.2599
O   -1.2098    0.5532   -0.1699
C    0.1092    0.3212   -0.0304
O    0.4948   -0.7318    0.4376
N    1.0018    1.2570   -0.4100
C    2.3672    1.0571   -0.1766
C    2.9080   -0.2190   -0.2619
C    4.2568   -0.4129   -0.0308
Cl    4.9345   -2.0076   -0.1371
C    5.0676    0.6636    0.2849
C    4.5310    1.9347    0.3708
C    3.1847    2.1353    0.1352
H   -6.1568    0.8887   -1.4317
H   -6.2050    1.5967    0.2007
H   -1.9613   -0.6976    1.3208
H   -1.9132   -1.4056   -0.3116
H    0.6979    2.0690   -0.8449
H    2.2754   -1.0589   -0.5083
H    6.1214    0.5101    0.4648
H    5.1660    2.7726    0.6180
H    2.7665    3.1288    0.2026


