%nprocshared=4
%mem=100MW
%chk=MCSAJNNLRCFZED-UHFFFAOYSA-N.chk
#b3lyp/6-31+G(d) opt freq

gas opt

0 1
O    0.6056   -1.2068   -0.0966
N    0.5087    0.0069   -0.0651
O    1.4720    0.6871    0.2398
C   -0.7649    0.6490   -0.3998
C   -1.9080   -0.0909    0.2979
H   -0.7471    1.6868   -0.0669
H   -0.9158    0.6161   -1.4788
H   -1.9257   -1.1286   -0.0350
H   -1.7570   -0.0580    1.3769
H   -2.8555    0.3869    0.0488


