%nprocshared=4
%mem=100MW
%chk=MCWXGJITAZMZEV-UHFFFAOYSA-N.chk
#b3lyp/6-31+G(d) opt freq

gas opt

0 1
S    2.8793   -0.7141    0.3534
P    1.2162   -0.1035   -0.2246
S    0.1465    0.6975    1.4212
C   -1.3317    1.4038    0.6422
C   -2.2875    0.2959    0.2816
O   -2.0560   -0.8423    0.6306
N   -3.3996    0.5699   -0.4288
C   -4.3287   -0.5071   -0.7794
O    1.4221    1.0403   -1.3388
C    1.8506    2.3665   -1.0228
O    0.3860   -1.3280   -0.8597
C    0.3040   -2.6150   -0.2441
H   -1.8161    2.0897    1.3373
H   -1.0442    1.9437   -0.2600
H   -3.5847    1.4803   -0.7079
H   -5.1620   -0.0967   -1.3498
H   -3.8095   -1.2535   -1.3806
H   -4.7060   -0.9723    0.1313
H    1.8409    2.9764   -1.9261
H    1.1760    2.8000   -0.2845
H    2.8616    2.3346   -0.6167
H   -0.3105   -3.2731   -0.8584
H    1.3047   -3.0365   -0.1487
H   -0.1447   -2.5170    0.7445


