%nprocshared=4
%mem=100MW
%chk=METKIMKYRPQLGS-UHFFFAOYSA-N.chk
#b3lyp/6-31+G(d) opt freq

gas opt

0 1
O    5.0273   -1.3496    1.0252
C    5.7164   -0.8868    0.1409
N    7.0029   -1.2695    0.0188
C    5.1323    0.1115   -0.8252
C    3.6876    0.3616   -0.4769
C    3.3557    1.3709    0.4078
C    2.0321    1.6019    0.7290
C    1.0356    0.8204    0.1628
O   -0.2673    1.0459    0.4768
C   -1.2397    0.2027   -0.1440
C   -2.6386    0.6041    0.3279
O   -2.9353    1.9246   -0.1308
C   -3.6684   -0.3758   -0.2379
N   -5.0116    0.0097    0.2152
C   -6.0287   -0.9110   -0.3099
C   -6.1389   -2.1281    0.6108
C   -7.3798   -0.1958   -0.3738
C    1.3711   -0.1914   -0.7251
C    2.6958   -0.4150   -1.0470
H    7.3777   -1.9150    0.6383
H    7.5540   -0.8993   -0.6884
H    5.6885    1.0467   -0.7618
H    5.1986   -0.2827   -1.8393
H    4.1319    1.9791    0.8484
H    1.7735    2.3900    1.4207
H   -1.1764    0.3111   -1.2267
H   -1.0480   -0.8350    0.1290
H   -2.6752    0.5810    1.4171
H   -2.9207    2.0193   -1.0930
H   -3.6318   -0.3527   -1.3270
H   -3.4421   -1.3830    0.1120
H   -5.0534    0.0585    1.2222
H   -5.7424   -1.2367   -1.3099
H   -5.1764   -2.6376    0.6563
H   -6.4253   -1.8024    1.6108
H   -6.8936   -2.8112    0.2211
H   -7.3012    0.6712   -1.0296
H   -8.1345   -0.8790   -0.7634
H   -7.6661    0.1298    0.6263
H    0.5972   -0.8014   -1.1669
H    2.9576   -1.2024   -1.7384


