%nprocshared=4
%mem=100MW
%chk=MHWLWQUZZRMNGJ-UHFFFAOYSA-N.chk
#b3lyp/6-31+G(d) opt freq

gas opt

0 1
O    3.9096   -1.0308    0.1593
C    3.2623   -0.0082    0.0448
O    3.8913    1.1734   -0.1147
C    1.7936   -0.0609    0.0741
C    0.9959    1.1695   -0.0633
O    1.5251    2.2579   -0.2047
C   -0.4701    1.0267   -0.0230
C   -1.0236   -0.2552    0.1419
N   -0.2002   -1.3505    0.2629
C   -0.8120   -2.6707    0.4328
C   -1.0465   -3.3046   -0.9398
C    1.1364   -1.2645    0.2253
N   -2.3426   -0.3999    0.1802
C   -3.1560    0.6289    0.0676
C   -4.6443    0.3981    0.1196
C   -2.6776    1.9191   -0.0971
C   -1.3118    2.1340   -0.1442
H    4.8580    1.1573   -0.1317
H   -0.1476   -3.3065    1.0179
H   -1.7647   -2.5655    0.9520
H   -0.0939   -3.4097   -1.4590
H   -1.5018   -4.2869   -0.8134
H   -1.7109   -2.6688   -1.5249
H    1.7198   -2.1677    0.3266
H   -4.9869    0.4670    1.1521
H   -5.1503    1.1531   -0.4822
H   -4.8723   -0.5926   -0.2735
H   -3.3638    2.7481   -0.1880
H   -0.9089    3.1279   -0.2717


