%nprocshared=4
%mem=100MW
%chk=MLUCVPSAIODCQM-UHFFFAOYSA-N.chk
#b3lyp/6-31+G(d) opt freq

gas opt

0 1
O   -2.2981    0.2727    0.0000
C   -1.2804   -0.3878   -0.0003
C    0.0226    0.2766    0.0001
C    1.1421   -0.4499   -0.0003
C    2.4846    0.2347    0.0001
H   -1.3366   -1.4663    0.0037
H    0.0788    1.3552    0.0006
H    1.0859   -1.5284   -0.0008
H    2.5749    0.8570    0.8904
H    3.2751   -0.5158   -0.0002
H    2.5749    0.8579   -0.8896


