%nprocshared=4
%mem=100MW
%chk=MOYKHGMNXAOIAT-UHFFFAOYSA-N.chk
#b3lyp/6-31+G(d) opt freq

gas opt

0 1
O   -4.3752   -0.7273   -0.3663
N   -3.9456    0.1472    0.3646
O   -2.5724    0.4906    0.3265
C   -1.8095   -0.2680   -0.6140
C   -0.5575    0.5224   -1.0541
O   -0.1703    1.4093    0.0115
C    1.2610    1.5151   -0.0082
C    1.8089    0.2251   -0.6454
O    2.5849   -0.5088    0.3039
N    3.9431   -0.1131    0.3666
O    4.3506    0.7814   -0.3527
O    4.7037   -0.6672    1.1398
C    0.5512   -0.5762   -1.0474
O    0.1789   -1.4349    0.0461
C   -1.2526   -1.5410    0.0490
O   -4.6982    0.7298    1.1247
H   -2.4207   -0.5243   -1.4794
H   -0.6811    1.0281   -2.0117
H    1.5604    2.3781   -0.6030
H    1.6390    1.6152    1.0092
H    2.4087    0.4606   -1.5246
H    0.6562   -1.0946   -2.0004
H   -1.6165   -1.6144    1.0738
H   -1.5600   -2.4192   -0.5189


