%nprocshared=4
%mem=100MW
%chk=MPHPHYZQRGLTBO-UHFFFAOYSA-N.chk
#b3lyp/6-31+G(d) opt freq

gas opt

0 1
O   -2.5991   -0.9326   -0.4350
C   -1.6568   -0.1790   -0.4846
C   -1.6326    1.3491   -0.6270
C   -2.6863    2.0091    0.2647
C   -4.0834    1.6326   -0.2324
C   -5.1370    2.2925    0.6594
C   -0.2146    1.6306   -0.1184
O    0.3715    2.6849   -0.0608
N    0.2321    0.3554    0.2645
N   -0.2780   -0.4605   -0.4214
C   -0.0210   -1.7592   -0.0030
N   -1.0306   -2.6778    0.0846
C   -1.6950   -2.9159    1.3684
C   -1.4476   -3.4238   -1.1054
N    1.2186   -2.0881    0.3078
C    2.1377   -1.0664    0.2030
C    1.6146    0.2339    0.1891
C    2.4631    1.3088    0.0946
C    3.8304    1.0993    0.0089
C    4.7612    2.2799   -0.0952
C    4.3490   -0.1835    0.0184
C    3.5037   -1.2756    0.1167
H   -1.7502    1.6531   -1.6672
H   -2.5608    1.6647    1.2912
H   -2.5670    3.0919    0.2276
H   -4.2089    1.9769   -1.2589
H   -4.2027    0.5497   -0.1953
H   -6.1324    2.0243    0.3052
H   -5.0116    1.9481    1.6859
H   -5.0178    3.3754    0.6222
H   -2.5459   -2.2418    1.4676
H   -2.0423   -3.9481    1.4119
H   -0.9913   -2.7347    2.1808
H   -0.6312   -4.0657   -1.4364
H   -2.3165   -4.0362   -0.8644
H   -1.7053   -2.7244   -1.9008
H    2.0668    2.3135    0.0867
H    5.0553    2.5999    0.9043
H    5.6481    1.9945   -0.6610
H    4.2535    3.0991   -0.6044
H    5.4164   -0.3331   -0.0508
H    3.9054   -2.2780    0.1250
H   -0.0480    0.1886    1.2194
H    0.0964   -0.3630   -1.3533


