%nprocshared=4
%mem=100MW
%chk=MSMHOCZOEWMZOH-UHFFFAOYSA-N.chk
#b3lyp/6-31+G(d) opt freq

gas opt

0 1
O    0.9116   -0.9777    0.0122
C    1.0517    0.2270    0.0080
N    2.2889    0.7615    0.0036
C    3.4645   -0.1126    0.0038
C    3.4462   -0.9917    1.2559
O    3.3509   -0.1645    2.4173
C    3.4407   -0.9997   -1.2425
O    3.4579   -0.1787   -2.4120
C    4.7345    0.7406   -0.0017
O    5.8813   -0.1120   -0.0015
C   -0.1576    1.1262    0.0015
O   -1.3629    0.3164    0.0014
C   -2.5399    0.9716   -0.0041
O   -2.5589    2.1862   -0.0087
C   -3.8075    0.2131   -0.0046
C   -5.0293    0.8890   -0.0103
C   -6.2092    0.1745   -0.0111
C   -6.1839   -1.2090   -0.0059
C   -4.9767   -1.8851    0.0003
C   -3.7893   -1.1831   -0.0051
H    2.4010    1.7250    0.0002
H    2.5880   -1.6626    1.2163
H    4.3639   -1.5780    1.3017
H    3.3343   -0.6560    3.2499
H    4.3154   -1.6501   -1.2424
H    2.5360   -1.6076   -1.2386
H    3.4443   -0.6754   -3.2415
H    4.7476    1.3669   -0.8937
H    4.7515    1.3726    0.8862
H    6.7240    0.3622   -0.0048
H   -0.1449    1.7587    0.8891
H   -0.1403    1.7520   -0.8908
H   -5.0504    1.9688   -0.0136
H   -7.1549    0.6960   -0.0155
H   -7.1107   -1.7635   -0.0062
H   -4.9641   -2.9651    0.0051
H   -2.8477   -1.7121   -0.0003


