%nprocshared=4
%mem=100MW
%chk=MTBZIGHNGSTDJV-UHFFFAOYSA-N.chk
#b3lyp/6-31+G(d) opt freq

gas opt

0 1
S   -1.8844   -0.2694   -2.0042
P   -1.4054   -0.0458   -0.2172
O   -1.9377    1.3804    0.3067
C   -1.3208    2.6196   -0.0481
C   -2.0737    3.7732    0.6176
O   -2.0624   -1.2211    0.6655
C   -3.4639   -1.4999    0.6708
C   -3.7472   -2.6722    1.6123
N    0.2275   -0.1048   -0.0775
C    1.0735   -0.2874   -1.1074
O    0.7538   -0.4324   -2.2701
C    2.4571   -0.2810   -0.5874
C    2.3452   -0.0833    0.8040
C    0.8976    0.0288    1.0813
O    0.3966    0.2051    2.1735
C    3.4872   -0.0296    1.5863
C    4.7330   -0.1710    0.9944
C    4.8427   -0.3648   -0.3694
C    3.7085   -0.4203   -1.1650
H   -0.2844    2.6192    0.2896
H   -1.3501    2.7432   -1.1306
H   -2.0443    3.6495    1.7002
H   -1.6031    4.7184    0.3470
H   -3.1101    3.7735    0.2800
H   -4.0082   -0.6196    1.0127
H   -3.7868   -1.7577   -0.3379
H   -3.4242   -2.4144    2.6209
H   -4.8162   -2.8849    1.6163
H   -3.2029   -3.5525    1.2703
H    3.4074    0.1220    2.6526
H    5.6239   -0.1290    1.6034
H    5.8187   -0.4736   -0.8188
H    3.8002   -0.5724   -2.2303


