%nprocshared=4
%mem=100MW
%chk=MVQVNTPHUGQQHK-UHFFFAOYSA-N.chk
#b3lyp/6-31+G(d) opt freq

gas opt

0 1
O    2.6400   -0.0011   -0.6686
C    1.9221    0.0044    0.5669
C    0.4413    0.0153    0.2875
C   -0.2552   -1.1716    0.1579
N   -1.5508   -1.1700   -0.0870
C   -2.2306   -0.0474   -0.2171
C   -1.6017    1.1775   -0.1004
C   -0.2407    1.2158    0.1628
H    3.6014   -0.0082   -0.5649
H    2.1773   -0.8874    1.1394
H    2.1904    0.8926    1.1391
H    0.2679   -2.1111    0.2582
H   -3.2912   -0.0858   -0.4176
H   -2.1637    2.0933   -0.2087
H    0.2774    2.1585    0.2592


