%nprocshared=4
%mem=100MW
%chk=MWBPRDONLNQCFV-UHFFFAOYSA-N.chk
#b3lyp/6-31+G(d) opt freq

gas opt

0 1
Cl   -4.7046    0.0907   -0.5706
C   -3.1272   -0.4833   -0.1280
C   -2.2916    0.3116    0.5026
Cl   -2.7656    1.9355    0.8928
C   -0.9223   -0.1866    0.8869
S    0.3138    0.5279   -0.2256
C    1.7762   -0.2020    0.4327
O    1.7046   -0.9530    1.3866
N    2.9741    0.0720   -0.1209
C    4.1900   -0.5349    0.4265
C    4.3565   -0.1142    1.8881
C    4.0812   -2.0587    0.3436
C    3.0603    0.9766   -1.2700
C    4.0317    2.1149   -0.9512
C    3.5633    0.2038   -2.4909
Cl   -2.6558   -2.1094   -0.5118
H   -0.7024    0.1097    1.9125
H   -0.8960   -1.2735    0.8091
H    5.0535   -0.2004   -0.1485
H    3.5494   -0.5413    2.4833
H    5.3144   -0.4746    2.2630
H    4.3242    0.9730    1.9592
H    3.8562   -2.3517   -0.6819
H    5.0258   -2.5077    0.6507
H    3.2842   -2.4025    1.0028
H    2.0741    1.3894   -1.4822
H    5.0378    1.7120   -0.8343
H    4.0228    2.8391   -1.7658
H    3.7267    2.6046   -0.0263
H    2.8317   -0.5556   -2.7669
H    3.7042    0.8924   -3.3240
H    4.5124   -0.2759   -2.2515


