%nprocshared=4
%mem=100MW
%chk=MWKFXSUHUHTGQN-UHFFFAOYSA-N.chk
#b3lyp/6-31+G(d) opt freq

gas opt

0 1
O    6.0938   -0.3674   -0.0000
C    4.9299    0.4616    0.0000
C    3.6776   -0.4174   -0.0000
C    2.4314    0.4702    0.0000
C    1.1792   -0.4089   -0.0000
C   -0.0670    0.4788    0.0000
C   -1.3193   -0.4003    0.0000
C   -2.5655    0.4873   -0.0000
C   -3.8178   -0.3917    0.0000
C   -5.0640    0.4959   -0.0000
C   -6.3162   -0.3832    0.0000
H    6.9267    0.1239    0.0000
H    4.9321    1.0909    0.8900
H    4.9321    1.0909   -0.8900
H    3.6755   -1.0467   -0.8900
H    3.6755   -1.0467    0.8900
H    2.4336    1.0995    0.8900
H    2.4336    1.0995   -0.8900
H    1.1770   -1.0382   -0.8900
H    1.1770   -1.0382    0.8900
H   -0.0649    1.1081    0.8900
H   -0.0649    1.1081   -0.8900
H   -1.3214   -1.0296   -0.8900
H   -1.3214   -1.0296    0.8900
H   -2.5633    1.1166    0.8900
H   -2.5633    1.1166   -0.8900
H   -3.8199   -1.0210   -0.8900
H   -3.8199   -1.0210    0.8900
H   -5.0618    1.1252    0.8900
H   -5.0618    1.1252   -0.8900
H   -6.3184   -1.0125   -0.8900
H   -6.3184   -1.0125    0.8900
H   -7.2040    0.2492   -0.0000


