%nprocshared=4
%mem=100MW
%chk=MWOOGOJBHIARFG-UHFFFAOYSA-N.chk
#b3lyp/6-31+G(d) opt freq

gas opt

0 1
O   -3.6817   -0.2645   -0.0088
C   -2.6445   -0.8933   -0.0092
C   -1.3572   -0.1863    0.0002
C   -0.1581   -0.9103   -0.0002
C    1.0482   -0.2403    0.0087
O    2.2144   -0.9399    0.0079
C    2.1157   -2.3655   -0.0026
C    1.0718    1.1547    0.0182
O    2.2598    1.8114    0.0271
C   -0.1165    1.8734    0.0183
C   -1.3250    1.2131    0.0040
H   -2.6675   -1.9730   -0.0121
H   -0.1777   -1.9901   -0.0072
H    1.5811   -2.6861   -0.8968
H    3.1158   -2.7989   -0.0022
H    1.5749   -2.6988    0.8832
H    2.6073    2.0076   -0.8538
H   -0.0929    2.9532    0.0253
H   -2.2475    1.7746    0.0040


