%nprocshared=4
%mem=100MW
%chk=MWWATHDPGQKSAR-UHFFFAOYSA-N.chk
#b3lyp/6-31+G(d) opt freq

gas opt

0 1
C   -0.1719    0.0000   -0.0000
C   -1.3459   -0.0000    0.0000
C    1.3001    0.0000   -0.0000
H   -2.3959    0.0000    0.0000
H    1.6634   -0.0000    1.0277
H    1.6634   -0.8900   -0.5138
H    1.6634    0.8900   -0.5138


