%nprocshared=4
%mem=100MW
%chk=MXBNEEHQIDLPLQ-UHFFFAOYSA-N.chk
#b3lyp/6-31+G(d) opt freq

gas opt

0 1
O   -0.0432   -2.3792    0.9657
C    0.0041   -1.3068    0.3944
N    1.1998   -0.8148    0.0454
C    1.4142    0.4641   -0.6546
C    0.9074    1.5689    0.2361
O    1.6799    2.4205    0.6219
N   -0.3676    1.6316    0.6083
C   -1.3865    0.7848    0.2150
C   -1.2542   -0.6017    0.1074
C   -2.3589   -1.3733   -0.2869
C   -3.5622   -0.7733   -0.5757
C   -3.6900    0.6026   -0.4783
C   -2.6171    1.3731   -0.0929
C    2.9355    0.6255   -0.8515
C    3.4529   -0.8351   -0.7716
C    2.5086   -1.4422    0.2957
H    0.8880    0.4709   -1.6091
H   -0.6073    2.3455    1.2196
H   -2.2631   -2.4463   -0.3637
H   -4.4068   -1.3743   -0.8786
H   -4.6343    1.0732   -0.7091
H   -2.7286    2.4448   -0.0194
H    3.1542    1.0593   -1.8273
H    3.3655    1.2312   -0.0539
H    3.3381   -1.3432   -1.7292
H    4.4901   -0.8644   -0.4376
H    2.8612   -1.1967    1.2974
H    2.4408   -2.5230    0.1711


