%nprocshared=4
%mem=100MW
%chk=MXXWOMGUGJBKIW-UHFFFAOYSA-N.chk
#b3lyp/6-31+G(d) opt freq

gas opt

0 1
O   -3.5004   -2.0612   -0.0760
C   -3.4316   -0.8651    0.1418
C   -2.1715   -0.2204    0.1602
C   -1.0334   -0.9506    0.0359
C    0.2222   -0.3082    0.0542
C    1.3570   -1.0363   -0.0698
C    2.6646   -0.3674   -0.0507
C    3.8398   -1.1181   -0.1787
C    5.0660   -0.4845   -0.1606
O    6.3367   -0.9732   -0.2645
C    7.1923    0.0744    0.2288
O    6.4448    1.2776   -0.0283
C    5.1333    0.9027   -0.0149
C    3.9681    1.6470    0.1127
C    2.7400    1.0233    0.0898
N   -4.5556   -0.1540    0.3598
C   -4.5002    1.3066    0.5093
C   -5.4796    1.9413   -0.4829
C   -6.8717    1.3405   -0.2745
C   -6.8238   -0.1660   -0.5397
C   -5.8603   -0.8240    0.4463
H   -2.1152    0.8522    0.2732
H   -1.0896   -2.0232   -0.0771
H    0.2784    0.7644    0.1672
H    1.3008   -2.1089   -0.1827
H    3.7869   -2.1909   -0.2911
H    7.3679   -0.0462    1.2977
H    8.1362    0.0863   -0.3163
H    4.0246    2.7196    0.2253
H    1.8362    1.6061    0.1890
H   -4.7811    1.5807    1.5262
H   -3.4895    1.6572    0.3001
H   -5.5194    3.0178   -0.3167
H   -5.1461    1.7421   -1.5013
H   -7.1942    1.5186    0.7513
H   -7.5758    1.8082   -0.9627
H   -7.8204   -0.5893   -0.4139
H   -6.4777   -0.3454   -1.5576
H   -5.7476   -1.8794    0.1980
H   -6.2497   -0.7244    1.4594


