%nprocshared=4
%mem=100MW
%chk=NAEAAGULDNVNCW-UHFFFAOYSA-N.chk
#b3lyp/6-31+G(d) opt freq

gas opt

0 1
O    3.2386   -1.5273   -0.0858
C    2.6389   -0.4748   -0.1804
O    3.3045    0.6909   -0.0773
C    4.7371    0.6145    0.1468
C    5.3155    2.0281    0.2361
N    1.3082   -0.4744   -0.3942
C    0.5696   -1.7392   -0.5149
C   -0.5702   -1.7410    0.5114
N   -1.3087   -0.4757    0.3953
C   -2.6395   -0.4752    0.1824
O   -3.2395   -1.5274    0.0847
O   -3.3041    0.6910    0.0780
C   -4.7360    0.6154   -0.1512
C   -5.3133    2.0295   -0.2413
C   -0.5701    0.7891    0.5160
C    0.5688    0.7909   -0.5047
H    4.9312    0.0829    1.0784
H    5.2062    0.0815   -0.6802
H    6.3909    1.9707    0.4043
H    5.1213    2.5596   -0.6955
H    4.8463    2.5611    1.0631
H    0.1570   -1.8274   -1.5199
H    1.2408   -2.5750   -0.3177
H   -1.2415   -2.5761    0.3111
H   -0.1576   -1.8329    1.5161
H   -4.9271    0.0848   -1.0839
H   -5.2083    0.0820    0.6737
H   -4.8410    2.5629   -1.0661
H   -6.3882    1.9728   -0.4133
H   -5.1221    2.5601    0.6915
H   -1.2413    1.6250    0.3187
H   -0.1575    0.8774    1.5210
H    1.2392    1.6264   -0.3033
H    0.1585    0.8821   -1.5104


