%nprocshared=4
%mem=100MW
%chk=NBBJYMSMWIIQGU-UHFFFAOYSA-N.chk
#b3lyp/6-31+G(d) opt freq

gas opt

0 1
O   -1.6640   -0.0423    0.2762
C   -0.6623   -0.2260   -0.3728
C    0.5668    0.6064   -0.1133
C    1.7549   -0.3141    0.1732
H   -0.6460   -0.9899   -1.1362
H    0.7836    1.2173   -0.9896
H    0.3927    1.2532    0.7465
H    1.9291   -0.9610   -0.6866
H    2.6440    0.2880    0.3609
H    1.5382   -0.9250    1.0495


