%nprocshared=4
%mem=100MW
%chk=NDAUXUAQIAJITI-UHFFFAOYSA-N.chk
#b3lyp/6-31+G(d) opt freq

gas opt

0 1
O   -0.9920    1.6046    1.7721
C   -0.6259    0.3812    1.1310
C   -1.6325    0.0649    0.0230
N   -2.9747   -0.0697    0.6046
C   -3.9697   -0.3742   -0.4323
C   -3.6004   -1.6884   -1.1232
C   -5.3519   -0.5066    0.2103
C   -3.9931    0.7554   -1.4641
C    0.7510    0.5192    0.5343
C    1.6085   -0.5657    0.5187
C    2.8712   -0.4416   -0.0272
C    3.8051   -1.6242   -0.0439
O    3.1603   -2.7489    0.5573
C    3.2789    0.7727   -0.5606
O    4.5206    0.8972   -1.0987
C    2.4168    1.8592   -0.5441
C    1.1528    1.7285   -0.0016
H   -1.0132    2.3683    1.1793
H   -0.6254   -0.4266    1.8629
H   -1.6330    0.8726   -0.7089
H   -1.3532   -0.8684   -0.4661
H   -2.9851   -0.7687    1.3321
H   -3.5838   -2.4931   -0.3882
H   -4.3387   -1.9143   -1.8926
H   -2.6157   -1.5940   -1.5810
H   -5.6149    0.4297    0.7025
H   -6.0901   -0.7326   -0.5591
H   -5.3352   -1.3113    0.9453
H   -3.0084    0.8497   -1.9219
H   -4.7314    0.5294   -2.2335
H   -4.2562    1.6917   -0.9719
H    1.2907   -1.5106    0.9340
H    4.0689   -1.8643   -1.0738
H    4.7086   -1.3816    0.5155
H    3.7044   -3.5479    0.5810
H    4.5623    0.6934   -2.0430
H    2.7319    2.8055   -0.9584
H    0.4811    2.5741    0.0111


