%nprocshared=4
%mem=100MW
%chk=NDDAHWYSQHTHNT-UHFFFAOYSA-N.chk
#b3lyp/6-31+G(d) opt freq

gas opt

0 1
Cl   -4.8332   -1.3503   -1.1081
C   -3.1823   -1.0197   -0.6849
C   -2.8800    0.0716    0.1132
S   -4.1711    1.1196    0.6956
O   -5.1703    0.2642    1.2335
O   -3.5437    2.1500    1.4464
N   -4.8447    1.8501   -0.6292
C   -1.5708    0.3389    0.4530
C   -0.5487   -0.4925   -0.0093
C    0.8566   -0.2116    0.3518
O    1.1245    0.7448    1.0526
N    1.8411   -1.0159   -0.0959
N    3.1733   -0.7496    0.2464
C    3.9524   -1.5005    1.2345
C    4.0755   -2.9656    0.8112
C    5.3365   -0.8314    1.2491
C    5.2297    0.2841    0.2337
C    3.9538    0.2659   -0.3084
C    3.6160    1.2119   -1.2782
C    4.5412    2.1486   -1.6876
C    5.8110    2.1581   -1.1407
C    6.1545    1.2218   -0.1829
C   -0.8595   -1.5904   -0.8135
C   -2.1734   -1.8512   -1.1417
H   -4.5034    1.6558   -1.5161
H   -5.5805    2.4723   -0.5182
H   -1.3363    1.1900    1.0752
H    1.6273   -1.7791   -0.6551
H    3.4859   -1.4294    2.2171
H    4.5528   -3.0222   -0.1671
H    4.6784   -3.5053    1.5414
H    3.0830   -3.4130    0.7576
H    5.5528   -0.4264    2.2377
H    6.1064   -1.5436    0.9522
H    2.6260    1.2097   -1.7097
H    4.2732    2.8771   -2.4385
H    6.5338    2.8929   -1.4632
H    7.1458    1.2281    0.2456
H   -0.0731   -2.2369   -1.1740
H   -2.4152   -2.7003   -1.7638


