%nprocshared=4
%mem=100MW
%chk=NFACJZMKEDPNKN-UHFFFAOYSA-N.chk
#b3lyp/6-31+G(d) opt freq

gas opt

0 1
Cl    1.2012   -1.4856    0.8469
C    1.4251    0.0579   -0.0579
Cl    3.0117    0.7902    0.3863
Cl    1.3914   -0.2739   -1.8298
C    0.2974    1.0276    0.3010
P   -1.3067    0.2871   -0.1482
O   -1.3344    0.0148   -1.6026
O   -1.5066   -1.0911    0.6598
C   -2.6192   -1.9627    0.4486
O   -2.4934    1.3075    0.2295
C   -3.8635    1.0619   -0.0939
O    0.3242    1.2905    1.7053
H    0.4327    1.9607   -0.2460
H   -2.5347   -2.8262    1.1084
H   -3.5448   -1.4293    0.6651
H   -2.6268   -2.2974   -0.5887
H   -3.9708    0.9694   -1.1747
H   -4.1896    0.1381    0.3839
H   -4.4751    1.8908    0.2623
H    0.2093    0.5033    2.2551


