%nprocshared=4
%mem=100MW
%chk=NFBOHOGPQUYFRF-UHFFFAOYSA-N.chk
#b3lyp/6-31+G(d) opt freq

gas opt

0 1
O   -0.0000   -1.3764    0.0003
C   -1.1777   -0.6959    0.0003
C   -1.1777    0.6959    0.0003
O    0.0000    1.3764    0.0003
C    1.1777    0.6959    0.0003
C    1.1777   -0.6959    0.0003
C    2.3782   -1.3858   -0.0001
C    3.5747   -0.6908   -0.0006
C    3.5747    0.6908   -0.0001
C    2.3782    1.3858   -0.0001
C   -2.3782    1.3858   -0.0001
C   -3.5747    0.6908   -0.0006
C   -3.5747   -0.6908   -0.0001
C   -2.3782   -1.3858   -0.0001
H    2.3807   -2.4658    0.0002
H    4.5107   -1.2296   -0.0009
H    4.5107    1.2296   -0.0001
H    2.3806    2.4658    0.0002
H   -2.3807    2.4658    0.0002
H   -4.5107    1.2296   -0.0009
H   -4.5107   -1.2296    0.0002
H   -2.3806   -2.4658   -0.0001


