%nprocshared=4
%mem=100MW
%chk=NGFMICBWJRZIBI-UHFFFAOYSA-N.chk
#b3lyp/6-31+G(d) opt freq

gas opt

0 1
O   -0.7924   -0.8791    0.2324
C   -1.8352   -0.0123    0.3211
C   -3.1053   -0.4106   -0.0709
C   -3.3299   -1.8055   -0.5951
O   -4.7092   -1.9723   -0.9295
C   -4.1635    0.4724    0.0202
C   -3.9580    1.7525    0.5011
C   -2.6935    2.1520    0.8919
C   -1.6329    1.2704    0.8090
C    0.4866   -0.4007    0.6537
C    1.5026   -1.5446    0.5998
O    1.5569   -2.0730   -0.7268
C    2.8828   -1.0101    0.9947
O    3.8514   -2.0541    0.8764
C    3.2574    0.1447    0.0607
O    3.3581   -0.3390   -1.2801
C    2.1735    1.2233    0.1355
C    2.5100    2.3532   -0.8397
O    1.5629    3.4123   -0.6867
O    0.9107    0.6527   -0.2137
H   -2.7190   -1.9623   -1.4840
H   -3.0513   -2.5303    0.1698
H   -4.9270   -2.8490   -1.2744
H   -5.1522    0.1628   -0.2848
H   -4.7867    2.4416    0.5712
H   -2.5355    3.1524    1.2668
H   -0.6452    1.5829    1.1143
H    0.4159   -0.0251    1.6745
H    1.2033   -2.3306    1.2931
H    0.7143   -2.4253   -1.0446
H    2.8548   -0.6537    2.0244
H    3.6725   -2.8219    1.4364
H    4.2142    0.5665    0.3686
H    4.0240   -1.0299   -1.4001
H    2.1252    1.6205    1.1494
H    3.5116    2.7284   -0.6294
H    2.4707    1.9753   -1.8613
H    1.7153    4.1643   -1.2752


