%nprocshared=4
%mem=100MW
%chk=NHOWDZOIZKMVAI-UHFFFAOYSA-N.chk
#b3lyp/6-31+G(d) opt freq

gas opt

0 1
Cl   -3.3410   -0.4314   -1.2751
C   -2.3998   -1.4505   -0.2314
C   -1.0759   -1.1419    0.0272
C   -0.4509    0.0793   -0.5967
O   -0.7671    0.1172   -1.9897
C   -0.9883    1.3170    0.0743
C   -1.3319    2.4350   -0.6693
N   -1.8006    3.5038   -0.0455
C   -1.9418    3.5132    1.2649
N   -1.6255    2.4688    2.0040
C   -1.1562    1.3628    1.4493
C    1.0449    0.0227   -0.4224
C    1.5929    0.0153    0.8467
C    2.9647   -0.0366    1.0072
C    3.7895   -0.0817   -0.1027
Cl    5.5126   -0.1475    0.0980
C    3.2405   -0.0747   -1.3726
C    1.8683   -0.0277   -1.5317
C   -0.3271   -1.9535    0.8581
C   -0.9004   -3.0739    1.4305
C   -2.2226   -3.3829    1.1722
C   -2.9745   -2.5681    0.3466
H   -0.3964    0.8786   -2.4566
H   -1.2184    2.4340   -1.7433
H   -2.3265    4.4003    1.7458
H   -0.8990    0.5105    2.0608
H    0.9489    0.0505    1.7130
H    3.3927   -0.0416    1.9987
H    3.8838   -0.1099   -2.2394
H    1.4396   -0.0223   -2.5230
H    0.7062   -1.7128    1.0600
H   -0.3147   -3.7081    2.0795
H   -2.6697   -4.2584    1.6194
H   -4.0076   -2.8097    0.1447


