%nprocshared=4
%mem=100MW
%chk=NHPPIJMARIVBGU-UHFFFAOYSA-N.chk
#b3lyp/6-31+G(d) opt freq

gas opt

0 1
I   -1.8580    0.1982   -0.0002
C    0.0396   -0.6896   -0.0004
C    1.1948    0.1118   -0.0001
C    2.4696   -0.5073   -0.0003
C    2.5544   -1.9102   -0.0012
C    1.4147   -2.6540   -0.0018
C    0.1608   -2.0458    0.0049
C    3.6245    0.2935   -0.0001
C    3.5039    1.6491    0.0003
C    2.2502    2.2579    0.0009
C    1.1102    1.5144   -0.0002
H    3.5192   -2.3956   -0.0016
H    1.4830   -3.7318   -0.0029
H   -0.7280   -2.6592    0.0042
H    4.6026   -0.1645    0.0001
H    4.3930    2.2622    0.0004
H    2.1823    3.3357    0.0015
H    0.1455    2.0000    0.0004


