%nprocshared=4
%mem=100MW
%chk=NHTMVDHEPJAVLT-UHFFFAOYSA-N.chk
#b3lyp/6-31+G(d) opt freq

gas opt

0 1
C    1.1170   -0.0792   -0.0168
C   -0.1849   -0.6782   -0.5525
C   -1.3660   -0.1358    0.2548
C   -1.5536    1.3513   -0.0524
C   -2.6366   -0.8991   -0.1246
C    1.2026   -0.3126    1.4929
C    2.3079   -0.7496   -0.7048
C    1.1426    1.4236   -0.3028
H   -0.3058   -0.4059   -1.6010
H   -0.1502   -1.7638   -0.4608
H   -1.1686   -0.2649    1.3189
H   -1.2475    1.5517   -1.0792
H   -2.6028    1.6186    0.0728
H   -0.9439    1.9431    0.6305
H   -3.4921   -0.4572    0.3862
H   -2.7872   -0.8409   -1.2025
H   -2.5356   -1.9430    0.1724
H    1.0547   -1.3713    1.7058
H    2.1836   -0.0031    1.8533
H    0.4304    0.2703    1.9949
H    2.2469   -0.5834   -1.7803
H    3.2354   -0.3229   -0.3232
H    2.2897   -1.8203   -0.5010
H    0.6138    1.9533    0.4895
H    2.1759    1.7682   -0.3433
H    0.6564    1.6199   -1.2584


