%nprocshared=4
%mem=100MW
%chk=NIHNNTQXNPWCJQ-UHFFFAOYSA-N.chk
#b3lyp/6-31+G(d) opt freq

gas opt

0 1
C    0.7420   -0.4190   -0.0012
C   -0.7419   -0.4190   -0.0013
C   -1.2055    0.8938   -0.0005
C   -2.5596    1.1532    0.0003
C   -3.4653    0.1071    0.0008
C   -3.0145   -1.2006    0.0005
C   -1.6615   -1.4694   -0.0015
C   -0.0000    1.8016    0.0001
C    1.2055    0.8938   -0.0003
C    2.5596    1.1532    0.0003
C    3.4653    0.1071    0.0001
C    3.0145   -1.2006   -0.0012
C    1.6615   -1.4694    0.0034
H   -2.9136    2.1736    0.0010
H   -4.5257    0.3120    0.0018
H   -3.7246   -2.0143    0.0012
H   -1.3138   -2.4919   -0.0024
H    0.0000    2.4260   -0.8933
H   -0.0000    2.4249    0.8943
H    2.9136    2.1736    0.0006
H    4.5257    0.3120    0.0006
H    3.7246   -2.0143   -0.0017
H    1.3138   -2.4918    0.0024


