%nprocshared=4
%mem=100MW
%chk=NIPDVSLAMPAWTP-UHFFFAOYSA-N.chk
#b3lyp/6-31+G(d) opt freq

gas opt

0 1
O    3.2876   -0.8893    0.0013
N    2.6573    0.1529    0.0008
O    3.2447    1.2199   -0.0040
C    1.1775    0.1228    0.0000
C    0.5124   -1.0893   -0.0002
C   -0.8742   -1.1190   -0.0005
N   -1.5498   -2.3447   -0.0002
C   -1.5929    0.0750   -0.0006
O   -2.9528    0.0520   -0.0004
C   -3.6229    1.3142   -0.0005
C   -0.9192    1.2847   -0.0004
C    0.4639    1.3065    0.0053
H    1.0724   -2.0128   -0.0005
H   -1.0483   -3.1750    0.0001
H   -2.5196   -2.3639   -0.0004
H   -4.7009    1.1532   -0.0004
H   -3.3393    1.8762    0.8894
H   -3.3395    1.8759   -0.8906
H   -1.4737    2.2114   -0.0004
H    0.9876    2.2510    0.0058


