%nprocshared=4
%mem=100MW
%chk=NKPDCGFEJUINIK-UHFFFAOYSA-N.chk
#b3lyp/6-31+G(d) opt freq

gas opt

0 1
S    3.8518   -0.7590    0.1302
O    4.0245   -0.5980    1.5315
O    4.8272   -0.3616   -0.8238
N    3.5781   -2.3721   -0.1250
C    2.3686    0.0945   -0.2896
O    2.0571    0.5776   -1.5034
C    0.8508    1.1660   -1.4551
C    0.3776    1.0631   -0.2002
S   -1.1657    1.6718    0.3933
O   -1.0165    1.8441    1.7959
O   -1.5459    2.7239   -0.4829
C   -2.3522    0.3878    0.1732
C   -2.5632   -0.5369    1.1793
C   -3.4925   -1.5447    1.0089
C   -4.2146   -1.6283   -0.1727
O   -5.1297   -2.6186   -0.3425
C   -4.0014   -0.6991   -1.1805
C   -3.0747    0.3100   -1.0032
C    1.3537    0.3677    0.5499
H    2.7146   -2.6722   -0.4494
H    4.2813   -3.0170    0.0499
H    0.3464    1.6415   -2.2833
H   -2.0008   -0.4713    2.0989
H   -3.6564   -2.2671    1.7948
H   -6.0203   -2.3863   -0.0459
H   -4.5621   -0.7623   -2.1014
H   -2.9085    1.0339   -1.7873
H    1.2981    0.1109    1.5974


