%nprocshared=4
%mem=100MW
%chk=NOQGZXFMHARMLW-UHFFFAOYSA-N.chk
#b3lyp/6-31+G(d) opt freq

gas opt

0 1
O    3.2295   -1.3234   -0.0466
C    3.1723   -0.1173   -0.0030
O    4.3017    0.6079    0.0162
C    1.8330    0.5731    0.0235
C    0.7185   -0.4744   -0.0130
C   -0.6208    0.2159    0.0135
O   -0.6783    1.4266    0.0573
N   -1.7548   -0.5120   -0.0114
N   -2.9688    0.1137    0.0126
C   -3.7142   -0.1355   -1.2284
C   -3.7496   -0.2970    1.1872
H    5.1367    0.1207   -0.0062
H    1.7467    1.1638    0.9355
H    1.7446    1.2280   -0.8433
H    0.8047   -1.0652   -0.9250
H    0.8069   -1.1294    0.8538
H   -1.7089   -1.4803   -0.0464
H   -3.8756   -1.2070   -1.3464
H   -4.6767    0.3741   -1.1828
H   -3.1434    0.2415   -2.0770
H   -3.2046   -0.0373    2.0947
H   -4.7114    0.2160    1.1817
H   -3.9123   -1.3743    1.1567


