%nprocshared=4
%mem=100MW
%chk=NPPQSCRMBWNHMW-UHFFFAOYSA-N.chk
#b3lyp/6-31+G(d) opt freq

gas opt

0 1
O   -3.6743    1.0147    1.3044
C   -3.6263    0.5334    0.1897
O   -2.4347    0.2847   -0.3854
C   -1.2491    0.6166    0.3844
C    0.0001    0.2661   -0.4265
C    1.2494    0.6159    0.3846
O    2.4349    0.2832   -0.3849
C    3.6266    0.5312    0.1905
O    3.6746    1.0124    1.3053
N    4.7663    0.2457   -0.4699
C   -0.0003   -1.2309   -0.7424
C   -0.0007   -2.0277    0.5638
C   -0.0011   -3.5248    0.2479
C    0.0005    1.0630   -1.7326
N   -4.7660    0.2435   -0.4687
H   -1.2488    1.6831    0.6094
H   -1.2494    0.0490    1.3149
H    1.2497    1.6824    0.6097
H    1.2491    0.0482    1.3152
H    4.7279   -0.1384   -1.3597
H    5.6248    0.4244   -0.0553
H   -0.8903   -1.4801   -1.3202
H    0.8897   -1.4806   -1.3200
H    0.8893   -1.7786    1.1416
H   -0.8907   -1.7780    1.1414
H   -0.8911   -3.7739   -0.3300
H    0.8889   -3.7745   -0.3298
H   -0.0014   -4.0924    1.1784
H    0.0008    2.1295   -1.5076
H    0.8905    0.8133   -2.3103
H   -0.8895    0.8138   -2.3105
H   -5.6245    0.4189   -0.0528
H   -4.7277   -0.1407   -1.3586


