%nprocshared=4
%mem=100MW
%chk=NQRLPDFELNCFHW-UHFFFAOYSA-N.chk
#b3lyp/6-31+G(d) opt freq

gas opt

0 1
O    3.6119   -1.3262   -0.1012
N    3.1763   -0.1988    0.0501
O    3.9395    0.7245    0.2703
C    1.7199    0.0500   -0.0397
C    0.8553   -0.9984   -0.2954
C   -0.5041   -0.7695   -0.3798
C   -1.0024    0.5153   -0.2076
N   -2.3791    0.7505   -0.2920
C   -3.2502   -0.1907    0.1225
O   -2.8431   -1.2008    0.6563
C   -4.7301    0.0120   -0.0773
C   -0.1314    1.5660    0.0491
C    1.2264    1.3295    0.1379
H    1.2435   -1.9972   -0.4296
H   -1.1788   -1.5887   -0.5799
H   -2.7066    1.5909   -0.6488
H   -5.0261   -0.3992   -1.0424
H   -5.2769   -0.4959    0.7171
H   -4.9577    1.0777   -0.0512
H   -0.5158    2.5664    0.1831
H    1.9043    2.1463    0.3375


