%nprocshared=4
%mem=100MW
%chk=NRGGMCIBEHEAIL-UHFFFAOYSA-N.chk
#b3lyp/6-31+G(d) opt freq

gas opt

0 1
C   -1.9254   -0.4658   -0.4484
C   -2.7398    0.3488    0.5586
C   -0.4562   -0.2131   -0.2278
N    0.0023    1.0233   -0.2453
C    1.2794    1.2919   -0.0569
C    2.1899    0.2764    0.1677
C    1.7450   -1.0363    0.1931
C    0.3940   -1.2792   -0.0040
H   -2.1360   -1.5266   -0.3126
H   -2.1973   -0.1681   -1.4611
H   -2.4679    0.0511    1.5713
H   -2.5291    1.4096    0.4229
H   -3.8024    0.1661    0.3991
H    1.6180    2.3173   -0.0785
H    3.2347    0.5028    0.3210
H    2.4336   -1.8501    0.3660
H    0.0125   -2.2895    0.0093


