%nprocshared=4
%mem=100MW
%chk=NSMWYRLQHIXVAP-UHFFFAOYSA-N.chk
#b3lyp/6-31+G(d) opt freq

gas opt

0 1
C   -1.8493    0.0279    1.2330
C   -1.5766   -0.0084   -0.2720
N   -0.8231    1.1912   -0.6628
C    0.4678    1.2500    0.0370
C    1.2870    0.0028   -0.3036
C    2.6148    0.0413    0.4555
N    0.5334   -1.1968    0.0872
C   -0.7575   -1.2556   -0.6126
H   -2.4310    0.9172    1.4755
H   -2.4082   -0.8620    1.5226
H   -0.9030    0.0543    1.7732
H   -2.5228   -0.0356   -0.8125
H   -0.6942    1.2274   -1.6629
H    1.0123    2.1400   -0.2784
H    0.2968    1.2901    1.1128
H    1.4816   -0.0228   -1.3757
H    2.4199    0.0661    1.5276
H    3.1980   -0.8471    0.2127
H    3.1727    0.9321    0.1669
H    1.0732   -2.0329   -0.0789
H   -1.3020   -2.1456   -0.2972
H   -0.5864   -1.2957   -1.6884


