%nprocshared=4
%mem=100MW
%chk=NVKAWKQGWWIWPM-UHFFFAOYSA-N.chk
#b3lyp/6-31+G(d) opt freq

gas opt

0 1
O   -5.1980    0.0514    1.2831
C   -4.2849   -0.1043    0.5056
C   -3.6243    1.0863   -0.1526
C   -2.1085    0.9551    0.0275
C   -1.6258   -0.3897   -0.5097
C   -1.9965   -0.5395   -1.9893
C   -0.0964   -0.4608   -0.3974
C    0.4000    0.7628    0.3747
C    1.8341    0.6180    0.7679
C    2.5582   -0.5382    0.0526
C    2.7170   -0.2962   -1.4497
C    3.9685   -0.3848    0.6691
O    4.9308   -1.0188   -0.1684
C    4.1867    1.1501    0.6911
C    2.7831    1.7952    0.5084
C    1.8921   -1.8592    0.3238
C    0.3630   -1.7427    0.2778
C    0.1137    2.0154   -0.4517
C   -1.4025    2.1220   -0.6575
C   -2.2585   -1.5267    0.2912
C   -3.7867   -1.4894    0.1683
H   -3.8913    1.1354   -1.2025
H   -3.9654    2.0007    0.3434
H   -1.9010    1.0002    1.1062
H   -1.5290    0.2602   -2.5638
H   -1.6449   -1.5038   -2.3561
H   -3.0793   -0.4815   -2.1002
H    0.2737   -0.4288   -1.4230
H   -0.1919    0.8380    1.3066
H    1.8658    0.4145    1.8644
H    3.4076    0.5311   -1.6135
H    3.1094   -1.1962   -1.9232
H    1.7473   -0.0511   -1.8828
H    3.9773   -0.7931    1.6718
H    5.8382   -0.9599    0.1606
H    4.6130    1.4528    1.6468
H    4.8425    1.4473   -0.1258
H    2.6625    2.2008   -0.4907
H    2.6296    2.5781    1.2554
H    2.2239   -2.5999   -0.4169
H    2.1971   -2.2285    1.3138
H   -0.0291   -1.7765    1.3007
H   -0.0403   -2.6048   -0.2678
H    0.4702    2.8967    0.0798
H    0.6064    1.9414   -1.4193
H   -1.6284    2.1370   -1.7205
H   -1.7500    3.0601   -0.2121
H   -1.8991   -2.4852   -0.0906
H   -1.9782   -1.4337    1.3419
H   -4.2193   -2.2051    0.8762
H   -4.0973   -1.7701   -0.8362


