%nprocshared=4
%mem=100MW
%chk=NXBNYUSXDBHELA-UHFFFAOYSA-N.chk
#b3lyp/6-31+G(d) opt freq

gas opt

0 1
O   -2.0760   -2.0419   -0.0095
C   -1.8317   -0.8488   -0.0033
C   -0.4455   -0.3868   -0.0009
C    0.5660   -1.2838   -0.0055
C    1.9597   -0.8194   -0.0030
C    3.0093   -1.7464   -0.0078
C    4.3132   -1.3058   -0.0059
C    4.5892    0.0570    0.0007
O    5.8769    0.4861    0.0020
C    6.0898    1.8991    0.0090
C    3.5508    0.9817    0.0055
C    2.2433    0.5519   -0.0017
C   -2.9364    0.1309   -0.0044
C   -4.2680   -0.3080   -0.0126
O   -4.5480   -1.6355   -0.0196
C   -5.2973    0.6208   -0.0131
C   -5.0108    1.9719   -0.0055
C   -3.6966    2.4095    0.0026
C   -2.6609    1.5001    0.0086
H   -0.2289    0.6712    0.0047
H    0.3494   -2.3419   -0.0110
H    2.7960   -2.8051   -0.0126
H    5.1234   -2.0199   -0.0093
H    7.1601    2.1053    0.0093
H    5.6353    2.3394   -0.8786
H    5.6363    2.3305    0.9014
H    3.7707    2.0391    0.0106
H    1.4375    1.2710    0.0016
H   -4.6333   -2.0241    0.8618
H   -6.3246    0.2874   -0.0197
H   -5.8162    2.6915   -0.0062
H   -3.4825    3.4681    0.0085
H   -1.6378    1.8458    0.0152


