%nprocshared=4
%mem=100MW
%chk=NYQDCVLCJXRDSK-UHFFFAOYSA-N.chk
#b3lyp/6-31+G(d) opt freq

gas opt

0 1
Br   -3.9670   -0.2112    0.4407
C   -2.1514   -0.2652   -0.0853
C   -1.5051    0.9008   -0.4598
Cl   -2.3621    2.4104   -0.4460
C   -0.1776    0.8634   -0.8442
C    0.5066   -0.3429   -0.8546
O    1.8121   -0.3816   -1.2319
P    2.8312    0.1889   -0.1237
S    2.1615    1.7815    0.5748
O    2.9950   -0.8895    1.0605
C    3.5723   -0.5715    2.3284
O    4.2650    0.4618   -0.8031
C    5.2833    1.2490   -0.1822
C   -0.1431   -1.5105   -0.4789
Cl    0.7107   -3.0220   -0.4908
C   -1.4692   -1.4682   -0.0900
H    0.3261    1.7729   -1.1366
H    4.5959   -0.2255    2.1850
H    2.9872    0.2136    2.8074
H    3.5741   -1.4599    2.9599
H    6.1579    1.2892   -0.8314
H    4.9095    2.2589   -0.0132
H    5.5592    0.7994    0.7716
H   -1.9750   -2.3765    0.2028


