%nprocshared=4
%mem=100MW
%chk=NZNPHIKNHGRVLZ-UHFFFAOYSA-N.chk
#b3lyp/6-31+G(d) opt freq

gas opt

0 1
O    1.7658   -1.0334    0.0072
C    1.9217    0.1694    0.0060
N    3.1658    0.6876    0.0012
C    4.3298   -0.2019   -0.0025
C    4.2926   -1.0853   -1.2511
C    5.6109    0.6346   -0.0076
C    4.3016   -1.0840    1.2473
C    0.7243    1.0844    0.0036
O   -0.4915    0.2906    0.0031
C   -1.6598    0.9612    0.0010
O   -1.6629    2.1759   -0.0004
C   -2.9373    0.2194    0.0004
C   -4.1501    0.9113   -0.0018
C   -5.3393    0.2123   -0.0029
C   -5.3322   -1.1713   -0.0013
C   -4.1340   -1.8633    0.0013
C   -2.9375   -1.1769   -0.0039
H    3.2905    1.6496    0.0003
H    4.3127   -0.4569   -2.1415
H    5.1587   -1.7471   -1.2539
H    3.3799   -1.6812   -1.2475
H    5.6374    1.2640    0.8820
H    6.4770   -0.0272   -0.0103
H    5.6310    1.2630   -0.8980
H    3.3890   -1.6799    1.2509
H    5.1677   -1.7458    1.2445
H    4.3282   -0.4546    2.1369
H    0.7465    1.7143    0.8929
H    0.7486    1.7123   -0.8871
H   -4.1570    1.9913   -0.0023
H   -6.2781    0.7463   -0.0046
H   -6.2662   -1.7137   -0.0018
H   -4.1356   -2.9433    0.0033
H   -2.0029   -1.7182   -0.0018


