%nprocshared=4
%mem=100MW
%chk=OBKHYUIZSOIEPG-UHFFFAOYSA-N.chk
#b3lyp/6-31+G(d) opt freq

gas opt

0 1
C    1.9603    0.2379   -1.2305
C    1.0310    0.0994   -0.0230
C    1.7720    0.4938    1.2561
C   -0.2138    0.9915   -0.2091
C   -1.3717    0.1586    0.3946
C   -2.7148    0.5859   -0.2009
C   -1.0148   -1.2856   -0.0365
C    0.5226   -1.3487    0.0875
H    2.8301   -0.4050   -1.0952
H    1.4277   -0.0569   -2.1347
H    2.2853    1.2744   -1.3219
H    2.0955    1.5321    1.1831
H    1.1060    0.3800    2.1115
H    2.6422   -0.1498    1.3850
H   -0.0954    1.9295    0.3333
H   -0.3920    1.1817   -1.2675
H   -1.3865    0.2481    1.4808
H   -2.6983    0.4348   -1.2802
H   -3.5135   -0.0123    0.2376
H   -2.8894    1.6398    0.0158
H   -1.4810   -2.0095    0.6320
H   -1.3225   -1.4632   -1.0670
H    0.9378   -1.9527   -0.7194
H    0.8024   -1.7711    1.0526


