%nprocshared=4
%mem=100MW
%chk=ODCWYMIRDDJXKW-UHFFFAOYSA-N.chk
#b3lyp/6-31+G(d) opt freq

gas opt

0 1
Cl   -0.0000   -3.0555    0.0004
C    0.0000   -1.3195    0.0008
N    1.1466   -0.6595    0.0008
C    1.1499    0.6713    0.0007
N    2.3462    1.3591    0.0002
C    3.6136    0.6242   -0.0001
C    4.7784    1.6163   -0.0006
N   -0.0000    1.3371    0.0005
C   -1.1499    0.6713    0.0005
N   -2.3462    1.3591    0.0004
C   -3.6136    0.6242    0.0004
C   -4.7784    1.6163    0.0002
N   -1.1465   -0.6595   -0.0045
H    2.3480    2.3291    0.0001
H    3.6704   -0.0024    0.8899
H    3.6699   -0.0026   -0.8900
H    5.7213    1.0696   -0.0008
H    4.7215    2.2430   -0.8906
H    4.7221    2.2432    0.8894
H   -2.3480    2.3291    0.0003
H   -3.6701   -0.0026   -0.8896
H   -3.6702   -0.0025    0.8904
H   -5.7213    1.0695    0.0002
H   -4.7218    2.2431    0.8902
H   -4.7217    2.2430   -0.8898


