%nprocshared=4
%mem=100MW
%chk=OFDYMSKSGFSLLM-UHFFFAOYSA-N.chk
#b3lyp/6-31+G(d) opt freq

gas opt

0 1
F   -3.6321   -1.7429    0.0314
C   -3.2866   -0.3875    0.0040
F   -3.8107    0.2040   -1.1504
F   -3.8104    0.2502    1.1337
C   -1.7858   -0.2517    0.0010
C   -1.2030    1.0099   -0.0245
N   -2.0075    2.1514   -0.0470
C    0.1790    1.1341   -0.0272
N    0.8031    2.4761   -0.0539
O    1.0600    3.0491    0.9897
O    1.0596    3.0073   -1.1195
C    0.9749   -0.0027   -0.0044
N    2.3663    0.1178   -0.0066
C    2.9387   -0.3673    1.2563
C    2.8053    0.7177    2.3268
C    2.9538   -0.5848   -1.1551
C    2.9824    0.3510   -2.3652
C    0.3858   -1.2609    0.0211
N    1.2338   -2.4739    0.0460
O    0.7234   -3.5759   -0.0478
O    2.4420   -2.3701    0.1602
C   -0.9908   -1.3809    0.0294
H   -2.9736    2.0639   -0.0448
H   -1.6003    3.0316   -0.0648
H    2.4051   -1.2619    1.5772
H    3.9922   -0.6056    1.1099
H    3.1520    0.3283    3.2840
H    3.4082    1.5813    2.0460
H    1.7606    1.0165    2.4130
H    3.9701   -0.8940   -0.9108
H    2.3531   -1.4636   -1.3895
H    1.9780    0.7290   -2.5561
H    3.6526    1.1864   -2.1627
H    3.3370   -0.1957   -3.2390
H   -1.4461   -2.3600    0.0496


