%nprocshared=4
%mem=100MW
%chk=OGBQILNBLMPPDP-UHFFFAOYSA-N.chk
#b3lyp/6-31+G(d) opt freq

gas opt

0 1
Cl   -4.8477    0.2335   -0.0008
C   -3.1315   -0.0274   -0.0014
C   -2.2740    1.0554   -0.0010
Cl   -2.9149    2.6688    0.0000
C   -0.8983    0.8548   -0.0010
O    0.1456    1.7134   -0.0000
C    1.3272    1.0576    0.0003
C    1.0716   -0.3206   -0.0005
C   -0.3979   -0.4545   -0.0014
C   -1.2692   -1.5386   -0.0028
C   -2.6323   -1.3221    0.0036
Cl   -3.7242   -2.6717    0.0018
C    2.1247   -1.2294   -0.0008
C    3.4257   -0.7697   -0.0002
Cl    4.7440   -1.8991   -0.0012
C    3.6819    0.5945    0.0006
Cl    5.3224    1.1621    0.0013
C    2.6435    1.5033    0.0013
H   -0.8806   -2.5462   -0.0035
H    1.9248   -2.2907   -0.0011
H    2.8541    2.5626    0.0019


