%nprocshared=4
%mem=100MW
%chk=OGDVEMNWJVYAJL-UHFFFAOYSA-N.chk
#b3lyp/6-31+G(d) opt freq

gas opt

0 1
O   -3.4507    0.3838    0.4100
C   -4.4782    1.1863   -0.1750
C   -5.8327    0.7916    0.4170
C   -2.1770    0.6093   -0.0099
C   -1.0997   -0.1218    0.5000
O   -1.0255   -1.1444    1.3827
C    0.2255   -1.8735    1.1015
C   -0.1146   -2.6762   -0.1593
O   -1.3072   -2.1347   -0.7306
C    0.9435   -2.6822   -1.2013
C    1.9929   -1.9237   -1.2360
C    2.3093   -0.9628   -0.1509
C    1.1400   -0.6995    0.7683
C    0.1719    0.1995    0.0410
C    0.4657    1.1060   -0.9491
C   -0.6080    1.8261   -1.4408
C   -1.8879    1.5752   -0.9717
C    1.8747    1.2150   -1.4349
C    2.8534    0.3759   -0.6301
N    3.3167    1.1290    0.5480
C    3.9558    2.3901    0.1487
C    2.2554    1.3661    1.5296
C    1.6457    0.0396    2.0103
H   -4.2823    2.2377    0.0354
H   -4.4930    1.0282   -1.2534
H   -6.0287   -0.2598    0.2065
H   -5.8179    0.9496    1.4953
H   -6.6165    1.4037   -0.0293
H    0.5728   -2.4927    1.9286
H   -0.3123   -3.7076    0.1326
H   -1.5968   -2.5845   -1.5361
H    0.8262   -3.3882   -2.0101
H    2.6598   -1.9934   -2.0827
H    3.0938   -1.4141    0.4567
H   -0.4494    2.5824   -2.1953
H   -2.7023    2.1651   -1.3656
H    1.9118    0.8940   -2.4759
H    2.1833    2.2591   -1.3821
H    3.7255    0.1816   -1.2545
H    3.2080    3.0558   -0.2822
H    4.4031    2.8634    1.0227
H    4.7304    2.1866   -0.5907
H    2.6709    1.9000    2.3843
H    1.4749    1.9748    1.0731
H    0.8156    0.2366    2.6888
H    2.4054   -0.5573    2.5148


