%nprocshared=4
%mem=100MW
%chk=OGHNVEJMJSYVRP-UHFFFAOYSA-N.chk
#b3lyp/6-31+G(d) opt freq

gas opt

0 1
O    4.8986   -0.7219    0.1337
C    4.6453   -1.8142   -0.7522
C    3.3263   -2.4875   -0.3675
N    2.2168   -1.5487   -0.5809
C    0.9314   -2.1623   -0.2212
C   -0.1973   -1.1566   -0.4564
O   -0.2941   -0.8671   -1.8524
C   -1.5195   -1.7499    0.0343
O   -2.5525   -0.7689   -0.0776
C   -3.7984   -1.1371    0.3194
C   -4.8580   -0.2297    0.2385
C   -6.1425   -0.6127    0.6484
N   -6.9966    0.4603    0.4663
H   -7.9441    0.4563    0.6738
C   -6.3052    1.5404   -0.0536
C   -4.9628    1.1681   -0.2174
C   -4.0431    2.0803   -0.7298
C   -4.4569    3.3488   -1.0749
C   -5.7835    3.7185   -0.9136
C   -6.7037    2.8256   -0.4081
C   -6.3478   -1.9016    1.1336
C   -5.2957   -2.7890    1.2085
C   -4.0257   -2.4144    0.8004
C    6.0400   -0.0118   -0.0723
C    6.3499    1.0653    0.7531
O    5.5122    1.4096    1.7676
C    5.8943    2.5258    2.5740
C    7.5137    1.7855    0.5392
C    8.3647    1.4338   -0.4925
C    8.0567    0.3646   -1.3124
C    6.8995   -0.3624   -1.1004
H    4.5795   -1.4444   -1.7754
H    5.4574   -2.5374   -0.6787
H    3.1768   -3.3731   -0.9851
H    3.3595   -2.7781    0.6825
H    2.3644   -0.6920   -0.0687
H    0.7653   -3.0457   -0.8378
H    0.9480   -2.4507    0.8298
H    0.0143   -0.2383    0.0913
H   -0.4815   -1.6401   -2.4023
H   -1.7757   -2.6181   -0.5729
H   -1.4173   -2.0527    1.0764
H   -3.0092    1.7946   -0.8559
H   -3.7453    4.0576   -1.4720
H   -6.0984    4.7149   -1.1865
H   -7.7346    3.1237   -0.2870
H   -7.3336   -2.2066    1.4523
H   -5.4636   -3.7868    1.5860
H   -3.2097   -3.1191    0.8641
H    5.1410    2.6926    3.3439
H    6.8560    2.3216    3.0448
H    5.9775    3.4145    1.9484
H    7.7563    2.6219    1.1779
H    9.2717    1.9961   -0.6583
H    8.7235    0.0934   -2.1175
H    6.6612   -1.1975   -1.7425


