%nprocshared=4
%mem=100MW
%chk=OGJPXUAPXNRGGI-UHFFFAOYSA-N.chk
#b3lyp/6-31+G(d) opt freq

gas opt

0 1
F    2.2326   -2.4641   -0.0743
C    1.2950   -1.4976    0.0349
C    1.6830   -0.1756    0.2696
N    3.0349    0.1366    0.3898
C    3.4453    1.1044   -0.6372
C    4.9132    1.4807   -0.4222
N    5.7412    0.2682   -0.4843
C    5.3308   -0.6995    0.5427
C    3.8630   -1.0759    0.3277
C    0.7336    0.8269    0.3831
C   -0.6162    0.5172    0.2635
N   -1.5730    1.5042    0.3746
C   -1.1358    2.8807    0.6201
C   -0.9110    3.5905   -0.7166
C   -2.8852    1.2573    0.2670
C   -3.3777   -0.0108    0.0362
C   -4.8246   -0.2408   -0.0760
O   -5.5985    0.6902    0.0346
O   -5.2940   -1.4843   -0.3016
C   -2.4298   -1.1297   -0.0963
O   -2.8155   -2.2677   -0.3009
C   -0.9965   -0.8165    0.0278
C   -0.0272   -1.8161   -0.0901
H    3.3249    0.6594   -1.6249
H    2.8260    1.9983   -0.5627
H    5.2279    2.1763   -1.2001
H    5.0288    1.9504    0.5546
H    5.7087   -0.1451   -1.4042
H    5.9501   -1.5934    0.4682
H    5.4512   -0.2546    1.5304
H    3.5482   -1.7715    1.1056
H    3.7473   -1.5456   -0.6491
H    1.0414    1.8461    0.5645
H   -1.9016    3.4093    1.1878
H   -0.2051    2.8706    1.1872
H   -1.8418    3.6005   -1.2837
H   -0.5857    4.6146   -0.5339
H   -0.1453    3.0619   -1.2843
H   -3.5806    2.0778    0.3645
H   -6.2533   -1.5861   -0.3678
H   -0.3230   -2.8381   -0.2755


