%nprocshared=4
%mem=100MW
%chk=OISVCGZHLKNMSJ-UHFFFAOYSA-N.chk
#b3lyp/6-31+G(d) opt freq

gas opt

0 1
C    2.4402    1.0774    0.0008
C    1.1518    0.2957    0.0010
N    0.0000    0.9378    0.0001
C   -1.1518    0.2958    0.0002
C   -2.4402    1.0774   -0.0008
C   -1.1911   -1.0857    0.0008
C   -0.0000   -1.7955    0.0017
C    1.1911   -1.0857   -0.0036
H    2.7505    1.2667    1.0284
H    3.2127    0.5046   -0.5123
H    2.2894    2.0264   -0.5138
H   -2.7505    1.2651   -1.0288
H   -3.2127    0.5054    0.5132
H   -2.2894    2.0272    0.5123
H   -2.1376   -1.6059    0.0009
H   -0.0000   -2.8755    0.0026
H    2.1376   -1.6059   -0.0034


