%nprocshared=4
%mem=100MW
%chk=OJPDDQSCZGTACX-UHFFFAOYSA-N.chk
#b3lyp/6-31+G(d) opt freq

gas opt

0 1
O   -0.7079    2.8345    0.5174
C   -1.9533    2.2285    0.1655
C   -1.6962    1.0254   -0.7439
N   -0.9622   -0.0012    0.0002
C   -1.6933   -1.0301    0.7440
C   -1.9461   -2.2341   -0.1656
O   -0.6985   -2.8361   -0.5168
C    0.4345    0.0010    0.0006
C    1.1320   -0.9716    0.7056
C    2.5130   -0.9667    0.7035
C    3.2015    0.0049    0.0006
C    2.5103    0.9747   -0.7024
C    1.1293    0.9725   -0.7088
H   -0.7949    3.6057    1.0943
H   -2.4648    1.8979    1.0695
H   -2.5751    2.9541   -0.3590
H   -2.6478    0.6170   -1.0840
H   -1.1074    1.3404   -1.6054
H   -1.1039   -1.3432    1.6058
H   -2.6464   -0.6248    1.0835
H   -2.5658   -2.9617    0.3585
H   -2.4581   -1.9052   -1.0699
H   -0.7827   -3.6075   -1.0938
H    0.5949   -1.7305    1.2551
H    3.0559   -1.7224    1.2518
H    4.2815    0.0067    0.0008
H    3.0511    1.7321   -1.2503
H    0.5900    1.7299   -1.2583


