%nprocshared=4
%mem=100MW
%chk=OJXOXNIZNJIMLU-UHFFFAOYSA-N.chk
#b3lyp/6-31+G(d) opt freq

gas opt

0 1
S   -2.9276    1.3021    0.2155
O   -2.1132    2.2478    0.8948
O   -4.2071    0.8992    0.6844
N   -3.1554    1.8944   -1.3141
C   -1.9664   -0.1673    0.0680
S   -2.6304   -1.7788   -0.1377
C   -1.0823   -2.4907   -0.1815
C   -0.1114   -1.5453   -0.0459
C    1.3272   -1.8535   -0.0452
O    1.7013   -3.0113   -0.0433
C    2.3167   -0.7582   -0.0467
C    2.0211    0.4524   -0.6800
C    2.9467    1.4717   -0.6787
C    4.1737    1.2982   -0.0487
O    5.0833    2.3054   -0.0497
C    4.4714    0.0960    0.5826
C    3.5495   -0.9266    0.5901
C   -0.6399   -0.2079    0.0914
H   -2.7782    1.4276   -2.0761
H   -3.6661    2.7081   -1.4480
H   -0.8966   -3.5479   -0.3005
H    1.0682    0.5878   -1.1699
H    2.7192    2.4072   -1.1680
H    5.0042    2.9075    0.7028
H    5.4257   -0.0347    1.0712
H    3.7816   -1.8603    1.0808
H   -0.0196    0.6683    0.2090


