%nprocshared=4
%mem=100MW
%chk=OKQHSIGMOWQUIK-UHFFFAOYSA-N.chk
#b3lyp/6-31+G(d) opt freq

gas opt

0 1
O   -2.5044    0.2365   -0.2213
C   -3.5822    1.1742   -0.2524
C   -4.9110    0.4212   -0.3428
O   -5.1081   -0.3418    0.8493
C   -1.2116    0.8394   -0.1369
N   -0.1858   -0.2062   -0.1115
C    1.1702   -0.0112   -0.0349
N    1.9611    1.0512    0.0358
C    3.2745    0.9048    0.1017
N    4.0717    2.0355    0.1746
N    3.8535   -0.2897    0.1006
C    3.1380   -1.3987    0.0325
C    1.7476   -1.2965   -0.0390
N    0.7292   -2.1893   -0.1174
C   -0.4042   -1.5517   -0.1536
H   -3.5667    1.7759    0.6563
H   -3.4733    1.8243   -1.1205
H   -5.7265    1.1355   -0.4559
H   -4.8919   -0.2476   -1.2032
H   -5.9330   -0.8463    0.8615
H   -1.0535    1.4825   -1.0027
H   -1.1469    1.4342    0.7742
H    3.6652    2.9162    0.1768
H    5.0364    1.9465    0.2235
H    3.6196   -2.3654    0.0323
H   -1.3757   -2.0194   -0.2164


