%nprocshared=4
%mem=100MW
%chk=OKXVARYIKDXAEO-UHFFFAOYSA-N.chk
#b3lyp/6-31+G(d) opt freq

gas opt

0 1
O   -1.2188    0.7257    1.1401
C   -0.7538   -0.0123    0.0083
C    0.7761   -0.0054   -0.0116
C    1.3057   -0.6506    1.2707
C    1.2739   -0.7956   -1.2234
C    1.2784    1.4370   -0.1018
C   -1.2561   -1.4547    0.0985
C   -1.2834    0.6329   -1.2739
H   -0.9375    1.6509    1.1490
H    0.9478   -1.6782    1.3350
H    2.3956   -0.6457    1.2565
H    0.9510   -0.0877    2.1340
H    0.8966   -0.3360   -2.1369
H    2.3638   -0.7907   -1.2376
H    0.9161   -1.8232   -1.1591
H    0.9237    1.9999    0.7615
H    2.3683    1.4419   -0.1160
H    0.9011    1.8966   -1.0153
H   -2.3460   -1.4596    0.1127
H   -0.9014   -2.0177   -0.7648
H   -0.8788   -1.9144    1.0120
H   -0.9255    1.6604   -1.3382
H   -0.9287    0.0699   -2.1373
H   -2.3733    0.6279   -1.2598


