%nprocshared=4
%mem=100MW
%chk=ONUFESLQCSAYKA-UHFFFAOYSA-N.chk
#b3lyp/6-31+G(d) opt freq

gas opt

0 1
Cl    3.0681   -3.2690    0.7116
C    2.7950   -1.6040    0.3033
C    3.8267   -0.8409   -0.2142
C    3.6121    0.4866   -0.5406
Cl    4.9089    1.4408   -1.1897
C    2.3655    1.0534   -0.3506
C    1.3288    0.2897    0.1680
N    0.0637    0.8622    0.3611
C   -1.0912    0.2352    0.1097
O   -1.1645   -0.9008   -0.3147
N   -2.1622    1.0033    0.3795
C   -3.4571    0.6598    0.2323
O   -4.3325    1.4541    0.5152
N   -3.7814   -0.5645   -0.2286
C   -5.1889   -0.9379   -0.3886
C   -5.6938   -0.4529   -1.7490
C   -5.3253   -2.4596   -0.3069
C   -1.6437    2.2927    0.8679
C   -0.1395    2.1098    0.8282
O    0.7053    2.9196    1.1453
C    1.5453   -1.0430    0.4902
H    4.8012   -1.2819   -0.3633
H    2.1985    2.0896   -0.6052
H   -3.0827   -1.1984   -0.4544
H   -5.7793   -0.4771    0.4034
H   -5.1034   -0.9137   -2.5410
H   -6.7410   -0.7307   -1.8680
H   -5.5966    0.6312   -1.8072
H   -4.9657   -2.8051    0.6623
H   -6.3726   -2.7374   -0.4259
H   -4.7349   -2.9204   -1.0989
H   -1.9518    3.1044    0.2089
H   -1.9776    2.4784    1.8887
H    0.7402   -1.6391    0.8938


