%nprocshared=4
%mem=100MW
%chk=OPNPQXLQERQBBV-UHFFFAOYSA-N.chk
#b3lyp/6-31+G(d) opt freq

gas opt

0 1
Br   -1.3713   -1.3499   -0.0033
C   -0.7027    0.4986   -0.0362
C    0.7571    0.5115    0.3378
O    1.1423    1.2072    1.2530
N    1.6344   -0.2504   -0.3450
C    2.9400   -0.2389   -0.0105
O    3.3261    0.4585    0.9069
N    3.8173   -1.0008   -0.6934
C   -0.8742    1.0781   -1.4418
C   -0.3538    2.5166   -1.4673
C   -1.4929    1.3446    0.9642
C   -2.9750    1.3316    0.5844
H    1.3263   -0.8070   -1.0772
H    3.5091   -1.5574   -1.4255
H    4.7569   -0.9925   -0.4526
H   -0.3112    0.4753   -2.1544
H   -1.9300    1.0688   -1.7123
H   -0.4760    2.9295   -2.4687
H   -0.9168    3.1194   -0.7547
H    0.7021    2.5259   -1.1968
H   -1.3708    0.9318    1.9655
H   -1.1222    2.3695    0.9460
H   -3.0972    1.7444   -0.4169
H   -3.3457    0.3067    0.6027
H   -3.5380    1.9343    1.2971


