%nprocshared=4
%mem=100MW
%chk=OQZCSNDVOWYALR-UHFFFAOYSA-N.chk
#b3lyp/6-31+G(d) opt freq

gas opt

0 1
Cl   -5.4931    0.0932    0.6332
C   -4.1396    1.0405   -0.0889
C   -2.8335    0.6907    0.6270
C   -2.4297   -0.7771    0.3558
Cl   -3.1591   -1.3574   -1.1875
C   -0.9216   -0.7326    0.2449
O   -0.1913   -1.6986    0.3121
N   -0.5089    0.5333    0.0601
C    0.8307    0.9156   -0.0720
C    1.8420   -0.0200    0.1041
C    3.1630    0.3605   -0.0269
C    4.2610   -0.6540    0.1634
F    4.5565   -1.2571   -1.0638
F    5.4043   -0.0167    0.6572
F    3.8413   -1.6300    1.0736
C    3.4794    1.6716   -0.3330
C    2.4750    2.6054   -0.5085
C    1.1515    2.2298   -0.3849
C   -1.6437    1.4629    0.0151
H   -4.0501    0.7970   -1.1476
H   -4.3413    2.1058    0.0231
H   -2.9143    0.8817    1.6971
H   -2.7345   -1.4160    1.1847
H    1.5956   -1.0439    0.3435
H    4.5133    1.9667   -0.4349
H    2.7253    3.6286   -0.7471
H    0.3673    2.9596   -0.5224
H   -1.8638    1.7398   -1.0158
H   -1.4265    2.3520    0.6071


