%nprocshared=4
%mem=100MW
%chk=ORNBQBCIOKFOEO-UHFFFAOYSA-N.chk
#b3lyp/6-31+G(d) opt freq

gas opt

0 1
O    4.9187    0.0049    1.5205
C    4.5408   -0.6246    0.5618
C    4.9369   -2.0703    0.4059
C    3.6701    0.0321   -0.4732
C    2.1828   -0.2367   -0.1515
C    2.0323   -0.1096    1.3662
C    1.5190    0.9289   -0.9106
C    0.0373    0.9941   -0.7167
C   -0.5105   -0.3835   -0.3280
C   -2.0210   -0.4025   -0.4971
C   -2.3637   -0.5700   -1.9749
C   -2.6290    0.8829    0.0006
C   -1.9440    1.9302    0.3621
C   -0.4370    1.9924    0.3367
C   -4.1430    0.9582    0.1012
C   -4.6236   -0.2332    0.9351
O   -6.0519   -0.2352    0.9832
C   -4.1322   -1.5313    0.2943
C   -2.6071   -1.5781    0.2875
C    0.2177   -1.4654   -1.1090
C    1.6765   -1.5744   -0.6303
C    2.3439    2.1340   -0.4357
C    3.7921    1.5738   -0.3891
H    5.5596   -2.3693    1.2490
H    4.0415   -2.6912    0.3772
H    5.4960   -2.1959   -0.5213
H    3.9020   -0.3229   -1.4699
H    2.4377    0.8482    1.6925
H    0.9770   -0.1672    1.6328
H    2.5751   -0.9191    1.8542
H    1.7226    0.7986   -1.9965
H   -0.4220    1.2865   -1.6801
H   -0.3330   -0.5430    0.7395
H   -1.9447   -1.5073   -2.3411
H   -3.4468   -0.5838   -2.0974
H   -1.9445    0.2614   -2.5416
H   -2.4811    2.8043    0.6974
H   -0.0499    1.7313    1.3173
H   -0.1234    2.9993    0.0650
H   -4.4311    1.8877    0.5933
H   -4.5870    0.9176   -0.8914
H   -4.2261   -0.1522    1.9468
H   -6.4333    0.5614    1.3770
H   -4.5112   -2.3774    0.8785
H   -4.5221   -1.6120   -0.7182
H   -2.2762   -2.5150   -0.1669
H   -2.2400   -1.5409    1.3166
H   -0.2792   -2.4274   -0.9665
H    0.2203   -1.2230   -2.1754
H    2.3011   -1.9317   -1.4583
H    1.7371   -2.3077    0.1822
H    2.2776    2.9474   -1.1628
H    2.0242    2.4788    0.5431
H    4.2734    1.8608    0.5456
H    4.3651    1.9503   -1.2358


