%nprocshared=4
%mem=100MW
%chk=OSSQSXOTMIGBCF-UHFFFAOYSA-N.chk
#b3lyp/6-31+G(d) opt freq

gas opt

0 1
C   -3.8948   -0.0083   -0.0000
C   -4.9053    0.5893   -0.0000
C   -2.6278   -0.7576    0.0000
C   -1.4545    0.2245    0.0000
C   -0.1376   -0.5543    0.0000
C    1.0357    0.4277    0.0000
C    2.3526   -0.3511   -0.0000
C    3.5259    0.6309    0.0000
C    4.8428   -0.1479   -0.0000
H   -5.8091    1.1238   -0.0000
H   -2.5766   -1.3848    0.8900
H   -2.5766   -1.3848   -0.8900
H   -1.5057    0.8517   -0.8900
H   -1.5057    0.8517    0.8900
H   -0.0864   -1.1816    0.8900
H   -0.0864   -1.1816   -0.8900
H    0.9845    1.0549   -0.8900
H    0.9845    1.0549    0.8900
H    2.4038   -0.9783    0.8900
H    2.4038   -0.9783   -0.8900
H    3.4747    1.2582   -0.8900
H    3.4747    1.2582    0.8900
H    4.8940   -0.7751   -0.8900
H    5.6787    0.5518   -0.0000
H    4.8940   -0.7751    0.8900


