%nprocshared=4
%mem=100MW
%chk=OTKXWJHPGBRXCR-UHFFFAOYSA-N.chk
#b3lyp/6-31+G(d) opt freq

gas opt

0 1
Cl   -0.3885   -2.7720   -0.2399
C   -1.0328   -1.1648   -0.3643
C   -0.2377   -0.1324   -0.8440
O    1.0458   -0.3786   -1.2173
P    2.1459    0.1470   -0.1658
S    1.7030    1.8707    0.3870
O    2.1800   -0.8337    1.1105
C    2.8108   -0.4840    2.3442
O    3.5945    0.1643   -0.8682
C    4.7163    0.8605   -0.3216
C   -0.7557    1.1501   -0.9419
C   -2.0612    1.3980   -0.5622
C   -2.8510    0.3690   -0.0845
N   -4.2487    0.6379    0.3213
O   -4.7020    1.7650    0.2341
O   -4.9456   -0.2680    0.7423
C   -2.3395   -0.9125    0.0087
H    3.8694   -0.2921    2.1694
H    2.3415    0.4117    2.7511
H    2.7026   -1.3049    3.0531
H    4.9422    0.4649    0.6687
H    5.5801    0.7255   -0.9725
H    4.4823    1.9223   -0.2439
H   -0.1392    1.9549   -1.3144
H   -2.4647    2.3969   -0.6385
H   -2.9587   -1.7148    0.3819


