%nprocshared=4
%mem=100MW
%chk=OUDSBRTVNLOZBN-UHFFFAOYSA-N.chk
#b3lyp/6-31+G(d) opt freq

gas opt

0 1
S    1.1690    1.5807   -0.5133
O    1.0871    1.8802   -1.9000
O    1.4021    2.5672    0.4825
N   -0.2549    0.8371   -0.1107
C   -0.4569    0.4059    1.1502
O    0.4063    0.5629    1.9920
N   -1.6157   -0.1992    1.4779
N   -2.5855   -0.3755    0.5321
C   -2.8748   -1.7319    0.3582
C   -3.7979   -1.9693   -0.8569
C   -5.2114   -1.6068   -0.4786
C   -5.5639   -0.1481   -0.8316
C   -4.4126    0.8177   -0.5032
C   -3.7586    0.4760    0.8121
C    2.4502    0.3839   -0.3377
C    2.8019   -0.4146   -1.4099
C    3.8070   -1.3535   -1.2720
C    4.4608   -1.4936   -0.0621
C    5.5562   -2.5175    0.0883
C    4.1100   -0.6942    1.0097
C    3.1075    0.2474    0.8707
H   -0.9435    0.7120   -0.7823
H   -1.7611   -0.5095    2.3853
H   -1.9432   -2.2775    0.2086
H   -3.3653   -2.1085    1.2558
H   -3.4720   -1.3461   -1.6897
H   -3.7559   -3.0192   -1.1472
H   -5.8979   -2.2718   -1.0028
H   -5.3365   -1.7497    0.5947
H   -5.7868   -0.0849   -1.8967
H   -6.4480    0.1494   -0.2677
H   -3.6665    0.7645   -1.2960
H   -4.8041    1.8338   -0.4525
H   -4.4632   -0.0642    1.4444
H   -3.4391    1.3899    1.3130
H    2.2912   -0.3051   -2.3551
H    4.0814   -1.9778   -2.1095
H    6.5140   -2.0654   -0.1693
H    5.5860   -2.8689    1.1197
H    5.3610   -3.3588   -0.5766
H    4.6210   -0.8034    1.9549
H    2.8334    0.8720    1.7081


