%nprocshared=4
%mem=100MW
%chk=OWZPCEFYPSAJFR-UHFFFAOYSA-N.chk
#b3lyp/6-31+G(d) opt freq

gas opt

0 1
O   -3.5125    1.6133    0.1597
N   -2.3374    1.9200    0.0663
O   -2.0155    3.0941    0.0294
C   -1.3002    0.8659    0.0037
C    0.0386    1.2146   -0.1027
O    0.3993    2.5240   -0.1491
C    1.0083    0.2244   -0.1612
C    2.4633    0.5996   -0.2763
C    3.2293    0.0464    0.9270
C    4.6795    0.5316    0.8753
C    3.0417    0.0098   -1.5642
C    0.6390   -1.1061   -0.1134
C   -0.6955   -1.4509   -0.0078
N   -1.0884   -2.8772    0.0432
O   -0.2361   -3.7458   -0.0078
O   -2.2639   -3.1821    0.1363
C   -1.6637   -0.4656    0.0569
H    0.5704    2.9159    0.7182
H    2.5578    1.6853   -0.2994
H    2.7618    0.3962    1.8474
H    3.2095   -1.0431    0.9007
H    5.2252    0.1375    1.7325
H    5.1470    0.1818   -0.0451
H    4.6993    1.6211    0.9015
H    2.9472   -1.0758   -1.5411
H    2.4959    0.4039   -2.4214
H    4.0941    0.2812   -1.6474
H    1.3936   -1.8774   -0.1589
H   -2.7056   -0.7375    0.1397


