%nprocshared=4
%mem=100MW
%chk=OXQGTIUCKGYOAA-UHFFFAOYSA-N.chk
#b3lyp/6-31+G(d) opt freq

gas opt

0 1
O    1.8326   -0.1697   -0.6087
C    1.0545    0.5213    0.0054
O    1.4282    1.7387    0.4296
C   -0.3375    0.0187    0.2898
C   -1.3604    0.9657   -0.3410
C   -2.7714    0.5374    0.0672
C   -0.5052   -1.3816   -0.3034
C    0.4028   -2.3628    0.4407
H    2.3295    2.0192    0.2198
H   -0.4961   -0.0218    1.3674
H   -1.1752    1.9828    0.0044
H   -1.2691    0.9283   -1.4265
H   -2.8729    0.6062    1.1503
H   -3.5016    1.1919   -0.4086
H   -2.9447   -0.4911   -0.2494
H   -1.5433   -1.6978   -0.2007
H   -0.2335   -1.3640   -1.3588
H    1.4455   -2.1182    0.2380
H    0.2144   -2.2913    1.5119
H    0.1953   -3.3780    0.1023


