%nprocshared=4
%mem=100MW
%chk=OZWKMVRBQXNZKK-UHFFFAOYSA-N.chk
#b3lyp/6-31+G(d) opt freq

gas opt

0 1
O   -1.3078   -2.0720    0.5051
C   -1.4361   -0.9163    0.1452
C   -0.2681   -0.1549   -0.3032
N    1.0483   -0.5740   -0.2525
C    1.8301    0.4072   -0.7613
C    3.2844   -0.0199   -0.7268
C    3.9999    0.6378    0.4250
O    3.4009    1.3867    1.1599
O    5.3027    0.3916    0.6343
C    3.2263   -1.5505   -0.5239
C    1.8605   -1.7262    0.1728
C    1.0417    1.4502   -1.1348
C   -0.2827    1.1084   -0.8583
C   -2.7724   -0.2828    0.1550
C   -3.9193   -1.0630   -0.0030
C   -5.1627   -0.4657    0.0071
C   -5.2747    0.9034    0.1732
C   -4.1420    1.6826    0.3298
C   -2.8928    1.0973    0.3279
H    3.7758    0.2235   -1.6688
H    5.7184    0.8366    1.3856
H    3.2456   -2.0716   -1.4811
H    4.0384   -1.8895    0.1193
H    1.9861   -1.7196    1.2555
H    1.3913   -2.6566   -0.1471
H    1.3804    2.3778   -1.5720
H   -1.1543    1.7201   -1.0385
H   -3.8333   -2.1317   -0.1331
H   -6.0508   -1.0681   -0.1154
H   -6.2506    1.3660    0.1803
H   -4.2363    2.7507    0.4587
H   -2.0095    1.7065    0.4503


