%nprocshared=4
%mem=100MW
%chk=PAMIQIKDUOTOBW-UHFFFAOYSA-N.chk
#b3lyp/6-31+G(d) opt freq

gas opt

0 1
C    2.3976    0.0000    0.0091
N    0.9612   -0.0000   -0.2986
C    0.3122    1.2116    0.2183
C   -1.1461    1.2478   -0.2443
C   -1.8703   -0.0000    0.2686
C   -1.1461   -1.2478   -0.2443
C    0.3122   -1.2116    0.2184
H    2.5377    0.0377    1.0894
H    2.8536   -0.9083   -0.3849
H    2.8673    0.8705   -0.4488
H    0.3476    1.2060    1.3078
H    0.8343    2.0917   -0.1572
H   -1.6317    2.1393    0.1525
H   -1.1819    1.2674   -1.3335
H   -1.8684   -0.0000    1.3586
H   -2.8979   -0.0000   -0.0948
H   -1.6317   -2.1393    0.1525
H   -1.1819   -1.2674   -1.3335
H    0.8343   -2.0917   -0.1572
H    0.3476   -1.2060    1.3078


