%nprocshared=4
%mem=100MW
%chk=PAYRUJLWNCNPSJ-UHFFFAOYSA-N.chk
#b3lyp/6-31+G(d) opt freq

gas opt

0 1
N    2.3198    0.0000    0.0006
C    0.9231    0.0000    0.0009
C    0.2269    1.2021   -0.0004
C   -1.1541    1.1985   -0.0006
C   -1.8440   -0.0000    0.0005
C   -1.1541   -1.1985    0.0018
C    0.2269   -1.2021   -0.0033
H    2.8048    0.8400   -0.0004
H    2.8048   -0.8400    0.0056
H    0.7651    2.1385   -0.0008
H   -1.6959    2.1327   -0.0012
H   -2.9240   -0.0000    0.0007
H   -1.6959   -2.1327    0.0026
H    0.7651   -2.1385   -0.0027


