%nprocshared=4
%mem=100MW
%chk=PBBGSZCBWVPOOL-UHFFFAOYSA-N.chk
#b3lyp/6-31+G(d) opt freq

gas opt

0 1
O    3.7135    2.9744   -0.5077
C    2.9641    1.8653   -0.2734
C    2.4244    1.6445    0.9855
C    1.6630    0.5163    1.2212
C    1.4389   -0.3929    0.2038
C    0.6082   -1.6231    0.4639
C   -0.6083   -1.6226   -0.4640
C   -1.4516   -2.8716   -0.2000
C   -2.5986   -2.9355   -1.2106
C   -1.4381   -0.3919   -0.2036
C   -1.6617    0.5177   -1.2207
C   -2.4220    1.6466   -0.9845
C   -2.9619    1.8670    0.2743
O   -3.7106    2.9766    0.5090
C   -2.7365    0.9526    1.2929
C   -1.9795   -0.1772    1.0504
C    1.4508   -2.8726    0.1995
C    2.5977   -2.9375    1.2101
C    1.9752   -0.1750   -1.0518
C    2.7326    0.9547   -1.2941
H    4.6583    2.8532   -0.3411
H    2.5998    2.3540    1.7806
H    1.2426    0.3440    2.2010
H    0.2739   -1.6232    1.5013
H   -0.2739   -1.6225   -1.5015
H   -0.8276   -3.7595   -0.3019
H   -1.8592   -2.8280    0.8099
H   -3.1993   -3.8254   -1.0226
H   -3.2225   -2.0476   -1.1087
H   -2.1909   -2.9792   -2.2206
H   -1.2411    0.3456   -2.2005
H   -2.5957    2.3572   -1.7791
H   -4.6554    2.8561    0.3419
H   -3.1557    1.1220    2.2738
H   -1.8038   -0.8893    1.8431
H    0.8262   -3.7601    0.3011
H    1.8584   -2.8289   -0.8105
H    3.2222   -2.0500    1.1084
H    2.1900   -2.9812    2.2200
H    3.1979   -3.8277    1.0217
H    1.7988   -0.8866   -1.8448
H    3.1511    1.1246   -2.2751


