%nprocshared=4
%mem=100MW
%chk=PBMFSQRYOILNGV-UHFFFAOYSA-N.chk
#b3lyp/6-31+G(d) opt freq

gas opt

0 1
N    0.6417   -1.1462   -0.0000
N   -0.6417   -1.1462    0.0000
C   -1.3445   -0.0296    0.0000
C   -0.6944    1.1946    0.0000
C    0.6944    1.1946    0.0000
C    1.3445   -0.0296   -0.0000
H   -2.4237   -0.0693   -0.0003
H   -1.2509    2.1202   -0.0003
H    1.2509    2.1202   -0.0003
H    2.4237   -0.0693    0.0003


