%nprocshared=4
%mem=100MW
%chk=PDQAZBWRQCGBEV-UHFFFAOYSA-N.chk
#b3lyp/6-31+G(d) opt freq

gas opt

0 1
S   -1.9943    0.0000   -0.0006
C   -0.2823    0.0000   -0.0008
N    0.4481    1.1228    0.0010
C    1.8758    0.7705    0.0002
C    1.8758   -0.7705   -0.0025
N    0.4481   -1.1228    0.0029
H    0.0918    2.0251    0.0027
H    2.3641    1.1547   -0.8954
H    2.3644    1.1515    0.8969
H    2.3641   -1.1515   -0.8994
H    2.3644   -1.1547    0.8929
H    0.0918   -2.0250    0.0028


