%nprocshared=4
%mem=100MW
%chk=PDRGHUMCVRDZLQ-UHFFFAOYSA-N.chk
#b3lyp/6-31+G(d) opt freq

gas opt

0 1
O   -4.8232    1.2122    0.0620
C   -3.9792    0.3495    0.1031
C   -2.4932    0.5384    0.1093
C   -1.9830    0.5733    1.5513
C   -1.9661   -0.7369   -0.6023
C   -0.4908   -0.7834   -0.3894
C    0.2090    0.3866   -0.3180
C    1.6116    0.3254   -0.1568
C    2.2595   -0.9261   -0.0371
C    3.6543   -0.9708    0.1278
C    4.3656    0.1945    0.1662
O    5.7145    0.1520    0.3245
C    3.7236    1.4310    0.0442
C    2.3752    1.5065   -0.1145
C    1.4955   -2.1046   -0.0874
C    0.1512   -2.0163   -0.2650
C   -0.4210    1.7529   -0.3706
C   -1.9259    1.7124   -0.6622
C   -2.8023   -1.8224    0.0809
C   -4.2062   -1.1590    0.1662
H   -2.2522   -0.3554    2.0545
H   -0.8987    0.6850    1.5505
H   -2.4346    1.4151    2.0763
H   -2.1880   -0.6893   -1.6684
H    4.1603   -1.9201    0.2238
H    6.2068    0.1064   -0.5066
H    4.3072    2.3392    0.0765
H    1.8928    2.4682   -0.2082
H    1.9712   -3.0690    0.0132
H   -0.4348   -2.9224   -0.3103
H   -0.2610    2.2492    0.5866
H    0.0702    2.3351   -1.1502
H   -2.0944    1.5760   -1.7305
H   -2.3952    2.6368   -0.3256
H   -2.8347   -2.7267   -0.5268
H   -2.4182   -2.0376    1.0780
H   -4.6910   -1.4300    1.1041
H   -4.8204   -1.4749   -0.6771


