%nprocshared=4
%mem=100MW
%chk=PFIADAMVCJPXSF-UHFFFAOYSA-N.chk
#b3lyp/6-31+G(d) opt freq

gas opt

0 1
Cl   -2.6874   -1.5887   -0.0008
C   -1.1923   -0.7064   -0.0008
C   -1.2056    0.6815   -0.0003
O   -2.3898    1.3502    0.0001
C   -2.3287    2.7779    0.0006
C   -0.0114    1.3862    0.0001
C    1.1923    0.7064   -0.0003
Cl    2.6874    1.5887   -0.0003
C    1.2056   -0.6815   -0.0003
O    2.3898   -1.3502   -0.0004
C    2.3287   -2.7779   -0.0004
C    0.0114   -1.3862    0.0046
H   -1.7999    3.1192   -0.8894
H   -3.3398    3.1849    0.0009
H   -1.7996    3.1186    0.8906
H   -0.0217    2.4661    0.0005
H    3.3399   -3.1849   -0.0004
H    1.7998   -3.1189    0.8896
H    1.7997   -3.1189   -0.8903
H    0.0217   -2.4661    0.0046


