%nprocshared=4
%mem=100MW
%chk=PHEOVVDXTQVHAZ-UHFFFAOYSA-N.chk
#b3lyp/6-31+G(d) opt freq

gas opt

0 1
O   -5.1151   -1.6839    1.1913
C   -5.3627   -1.0437    0.1970
O   -4.5308   -0.0665   -0.1965
C   -3.3532    0.1655    0.6206
C   -2.5446    1.2909    0.0285
O   -2.9219    1.8408   -0.9783
C   -1.2692    1.7289    0.6906
O   -1.3693    1.6520    2.1076
C   -0.0910    0.8615    0.1922
C   -0.3011    0.6874   -1.3164
C    1.0943    1.7913    0.5144
C    2.4151    1.2474    0.0736
C    2.3425   -0.2721   -0.0993
C    3.7187   -0.8506   -0.2805
C    3.5441   -1.8224   -1.4618
C    4.7388    0.1230   -0.7647
C    6.0460   -0.2022   -0.6848
C    6.4079   -1.5057   -0.0884
O    7.4292   -2.0995   -0.4167
C    5.4786   -2.0643    0.9197
C    4.1834   -1.7185    0.8434
C    4.4226    1.4761   -1.3429
C    2.9389    1.8274   -1.2419
C    1.5168   -0.8801    1.0199
O    1.9988   -0.4196    2.2864
C    0.0378   -0.4792    0.8677
C    0.6322    3.1215   -0.0974
C   -0.8831    3.1605    0.2455
C   -6.6023   -1.3463   -0.6048
C   -7.3655   -2.4986    0.0514
C   -7.4950   -0.1046   -0.6519
C   -6.2048   -1.7429   -2.0281
H   -3.6596    0.4314    1.6323
H   -2.7476   -0.7403    0.6507
H   -2.0766    2.1948    2.4820
H   -0.2460    1.6599   -1.8056
H    0.4735    0.0342   -1.7182
H   -1.2803    0.2443   -1.4982
H    1.1338    1.9379    1.6166
H    3.1644    1.4625    0.8570
H    1.8373   -0.4822   -1.0428
H    3.2062   -1.2709   -2.3391
H    4.4974   -2.3038   -1.6802
H    2.8052   -2.5806   -1.2024
H    6.8115    0.4856   -1.0494
H    5.8323   -2.7397    1.7008
H    3.4858   -2.0825    1.5960
H    5.0013    2.2276   -0.7998
H    4.7267    1.4902   -2.3894
H    2.4024    1.3977   -2.0873
H    2.8190    2.9128   -1.2459
H    1.5953   -1.9706    0.9881
H    1.5125   -0.7722    3.0442
H   -0.4264   -0.4466    1.8609
H   -0.4833   -1.2438    0.2786
H    1.1506    3.9571    0.3790
H    0.7914    3.1479   -1.1712
H   -1.4590    3.4469   -0.6343
H   -1.0612    3.8657    1.0564
H   -7.6486   -2.2160    1.0654
H   -8.2620   -2.7175   -0.5286
H   -6.7295   -3.3832    0.0849
H   -6.9513    0.7163   -1.1194
H   -8.3916   -0.3235   -1.2318
H   -7.7781    0.1779    0.3621
H   -5.5688   -2.6275   -1.9946
H   -7.1014   -1.9618   -2.6080
H   -5.6611   -0.9220   -2.4956


