%nprocshared=4
%mem=100MW
%chk=PHTQWCKDNZKARW-UHFFFAOYSA-N.chk
#b3lyp/6-31+G(d) opt freq

gas opt

0 1
O    2.6296   -0.2265    0.1872
C    1.3989    0.2898   -0.3234
C    0.2363   -0.5620    0.1901
C   -1.0814   -0.0091   -0.3566
C   -2.2309   -0.9317    0.0537
C   -1.3226    1.3904    0.2128
H    3.4114    0.2659   -0.0983
H    1.2703    1.3194    0.0108
H    1.4170    0.2611   -1.4128
H    0.3649   -1.5915   -0.1441
H    0.2182   -0.5332    1.2796
H   -1.0294    0.0451   -1.4440
H   -2.2829   -0.9859    1.1411
H   -3.1697   -0.5379   -0.3358
H   -2.0590   -1.9287   -0.3519
H   -1.3746    1.3362    1.3002
H   -0.5037    2.0477   -0.0795
H   -2.2614    1.7842   -0.1767


