%nprocshared=4
%mem=100MW
%chk=PJANXHGTPQOBST-VAWYXSNFSA-N.chk
#b3lyp/6-31+G(d) opt freq

gas opt

0 1
C    0.4357    0.5106   -0.0007
C   -0.4357   -0.5106   -0.0008
C   -1.8851   -0.2425   -0.0008
C   -2.7951   -1.3029   -0.0008
C   -4.1499   -1.0444   -0.0009
C   -4.6086    0.2611   -0.0009
C   -3.7133    1.3163   -0.0008
C   -2.3557    1.0732    0.0050
C    1.8851    0.2425   -0.0008
C    2.7951    1.3029   -0.0007
C    4.1499    1.0444   -0.0008
C    4.6086   -0.2611   -0.0009
C    3.7133   -1.3163   -0.0009
C    2.3557   -1.0732    0.0050
H    0.0748    1.5285   -0.0052
H   -0.0748   -1.5285   -0.0008
H   -2.4385   -2.3223   -0.0012
H   -4.8544   -1.8629   -0.0012
H   -5.6706    0.4575   -0.0012
H   -4.0785    2.3326   -0.0008
H   -1.6581    1.8976    0.0054
H    2.4385    2.3223   -0.0010
H    4.8544    1.8629   -0.0011
H    5.6706   -0.4575   -0.0013
H    4.0785   -2.3326   -0.0010
H    1.6581   -1.8976    0.0053


