%nprocshared=4
%mem=100MW
%chk=PJGSXYOJTGTZAV-UHFFFAOYSA-N.chk
#b3lyp/6-31+G(d) opt freq

gas opt

0 1
O   -1.3060   -1.2985    0.0003
C   -0.8687   -0.1728    0.0021
C    0.6206    0.0570    0.0000
C    1.3446   -1.2909   -0.0044
C    1.0125    0.8505   -1.2481
C    1.0169    0.8446    1.2504
C   -1.8124    1.0021    0.0002
H    1.0623   -1.8520   -0.8952
H    2.4219   -1.1247   -0.0059
H    1.0654   -1.8562    0.8848
H    0.4967    1.8107   -1.2449
H    2.0898    1.0167   -1.2496
H    0.7302    0.2893   -2.1388
H    0.7377    0.2793    2.1396
H    2.0942    1.0108    1.2489
H    0.5011    1.8049    1.2536
H   -2.0427    1.2848    1.0274
H   -1.3446    1.8430   -0.5118
H   -2.7324    0.7284   -0.5163


