%nprocshared=4
%mem=100MW
%chk=PKOFBDHYTMYVGJ-UHFFFAOYSA-N.chk
#b3lyp/6-31+G(d) opt freq

gas opt

0 1
S   -2.8356   -0.1599   -0.1258
O   -3.0064   -1.5415   -0.4109
O   -3.3470    0.8739   -0.9558
N   -3.4768    0.0895    1.3805
C   -1.0989    0.1122   -0.0050
C   -0.2556   -0.9394    0.3036
C    1.1061   -0.7295    0.3985
C    1.6282    0.5393    0.1838
N    3.0075    0.7552    0.2788
C    3.8682   -0.2155   -0.0863
O    3.4516   -1.2389   -0.5863
C    5.3484   -0.0292    0.1267
C    0.7787    1.5933   -0.1259
C   -0.5817    1.3757   -0.2246
H   -2.8986    0.3375    2.1188
H   -4.4306   -0.0125    1.5246
H   -0.6623   -1.9258    0.4708
H    1.7642   -1.5511    0.6399
H    3.3441    1.6035    0.6075
H    5.6242   -0.4072    1.1112
H    5.8975   -0.5765   -0.6395
H    5.5942    1.0308    0.0626
H    1.1816    2.5811   -0.2935
H   -1.2429    2.1949   -0.4654


