%nprocshared=4
%mem=100MW
%chk=PNVJTZOFSHSLTO-UHFFFAOYSA-N.chk
#b3lyp/6-31+G(d) opt freq

gas opt

0 1
S    1.8015    0.9314    1.2334
P    2.2682   -0.0719   -0.2660
O    3.7212    0.3858   -0.7870
C    4.8311    0.5962    0.0882
O    2.3051   -1.6336    0.1234
C    2.9233   -2.1243    1.3147
O    1.1815    0.1654   -1.4300
C   -0.1081    0.1196   -1.0005
C   -0.7362    1.2785   -0.5678
C   -2.0455    1.2333   -0.1320
C   -2.7276    2.4924    0.3375
C   -2.7341    0.0265   -0.1268
S   -4.4052   -0.0326    0.4285
C   -4.8352   -1.7851    0.2427
C   -2.1043   -1.1331   -0.5603
C   -0.7962   -1.0846   -1.0008
H    5.7008    0.8997   -0.4945
H    4.5842    1.3779    0.8066
H    5.0548   -0.3286    0.6201
H    2.4408   -1.6786    2.1845
H    2.8199   -3.2085    1.3576
H    3.9808   -1.8601    1.3105
H   -0.2006    2.2164   -0.5716
H   -3.2172    2.9770   -0.5072
H   -3.4714    2.2422    1.0939
H   -1.9875    3.1686    0.7654
H   -4.7306   -2.0760   -0.8025
H   -4.1680   -2.3900    0.8568
H   -5.8654   -1.9423    0.5623
H   -2.6386   -2.0717   -0.5567
H   -0.3064   -1.9861   -1.3382


