%nprocshared=4
%mem=100MW
%chk=POAOYUHQDCAZBD-UHFFFAOYSA-N.chk
#b3lyp/6-31+G(d) opt freq

gas opt

0 1
O   -0.6928    0.0764   -0.2144
C   -1.8348    0.8758    0.1000
C   -3.1016    0.1694   -0.3869
O   -3.2791   -1.0466    0.3423
C    0.5493    0.6487    0.2000
C    1.6961   -0.2877   -0.1858
C    3.0260    0.3251    0.2578
C    4.1729   -0.6113   -0.1279
H   -1.8912    1.0203    1.1789
H   -1.7469    1.8444   -0.3921
H   -3.9632    0.8178   -0.2275
H   -3.0071   -0.0545   -1.4495
H   -4.0650   -1.5481    0.0854
H    0.6866    1.6125   -0.2901
H    0.5423    0.7884    1.2809
H    1.5588   -1.2515    0.3043
H    1.7031   -0.4274   -1.2668
H    3.1634    1.2890   -0.2323
H    3.0190    0.4649    1.3388
H    4.0355   -1.5751    0.3622
H    4.1799   -0.7510   -1.2089
H    5.1203   -0.1747    0.1881


