%nprocshared=4
%mem=100MW
%chk=PRLMFHYBTOQSLN-UHFFFAOYSA-N.chk
#b3lyp/6-31+G(d) opt freq

gas opt

0 1
S   -2.1857   -2.1377    0.0002
C   -3.6103   -1.0212    0.0006
C   -0.8745   -0.9606    0.0007
N    0.3899   -1.3734    0.0006
C    1.3788   -0.4853    0.0006
N    2.6908   -0.9135    0.0000
C    2.9935   -2.3469   -0.0005
C    3.7809    0.0653    0.0000
N    1.1042    0.8156    0.0007
C   -0.1596    1.2285    0.0008
N   -0.4443    2.5790    0.0004
C    0.6461    3.5574   -0.0001
C   -1.8368    3.0340    0.0005
N   -1.1489    0.3408   -0.0043
H   -4.5302   -1.6059    0.0003
H   -3.5794   -0.3930    0.8908
H   -3.5792   -0.3922   -0.8892
H    2.0631   -2.9147   -0.0004
H    3.5710   -2.5960   -0.8908
H    3.5716   -2.5965    0.8892
H    4.0515    0.3077    1.0277
H    4.6457   -0.3540   -0.5142
H    3.4564    0.9704   -0.5134
H    0.9163    3.7997   -1.0279
H    0.3222    4.4626    0.5134
H    1.5110    3.1378    0.5137
H   -2.1820    3.1472    1.0282
H   -1.9058    3.9927   -0.5136
H   -2.4587    2.3007   -0.5130


