%nprocshared=4
%mem=100MW
%chk=PUIYMUZLKQOUOZ-UHFFFAOYSA-N.chk
#b3lyp/6-31+G(d) opt freq

gas opt

0 1
O    1.9751   -1.3552    0.3739
C    2.4344   -0.2640    0.0967
N    3.7645   -0.1128   -0.0598
C    4.6568   -1.2630    0.1040
C    4.3179    1.2019   -0.3938
N    1.6130    0.7930   -0.0594
C    0.2258    0.6139   -0.0139
C   -0.5880    1.6122    0.5051
C   -1.9568    1.4326    0.5482
C   -2.5169    0.2599    0.0757
C   -4.0107    0.0673    0.1242
C   -4.5441   -0.1435   -1.2942
C   -4.3394   -1.1577    0.9800
C   -1.7092   -0.7361   -0.4417
C   -0.3403   -0.5602   -0.4929
H    4.7848   -1.7632   -0.8560
H    5.6260   -0.9220    0.4681
H    4.2236   -1.9596    0.8217
H    4.5485    1.7429    0.5239
H    5.2285    1.0748   -0.9792
H    3.5884    1.7663   -0.9747
H    1.9833    1.6779   -0.2034
H   -0.1511    2.5280    0.8749
H   -2.5902    2.2087    0.9517
H   -4.4770    0.9508    0.5602
H   -4.0778   -1.0270   -1.7302
H   -5.6246   -0.2829   -1.2591
H   -4.3100    0.7291   -1.9039
H   -3.9594   -1.0075    1.9905
H   -5.4199   -1.2970    1.0151
H   -3.8731   -2.0412    0.5440
H   -2.1497   -1.6509   -0.8100
H    0.2900   -1.3386   -0.8970


