%nprocshared=4
%mem=100MW
%chk=PUXBGTOOZJQSKH-UHFFFAOYSA-N.chk
#b3lyp/6-31+G(d) opt freq

gas opt

0 1
Cl   -5.4049    1.4267    0.0116
C   -4.0600    0.3309   -0.0534
C   -2.7761    0.8075    0.1119
C   -1.6992   -0.0739    0.0594
C   -1.9201   -1.4417   -0.1610
N   -0.6951   -2.0857   -0.1673
H   -0.5702   -3.0383   -0.3008
C    0.3258   -1.1762    0.0434
C   -0.2408    0.0983    0.1920
C    0.5765    1.2035    0.4173
C    1.9428    1.0403    0.4936
C    2.5048   -0.2188    0.3469
C    4.0002   -0.3838    0.4324
C    4.6589    0.4409   -0.6433
O    3.9833    1.0954   -1.4016
O    5.9962    0.4483   -0.7591
C    4.4875    0.0853    1.8048
C    1.7078   -1.3205    0.1228
C   -3.2222   -1.9037   -0.3250
C   -4.2803   -1.0221   -0.2656
H   -2.6066    1.8606    0.2812
H    0.1409    2.1852    0.5315
H    2.5780    1.8961    0.6678
H    4.2584   -1.4337    0.2945
H    6.3728    0.9924   -1.4642
H    4.2293    1.1353    1.9426
H    4.0110   -0.5111    2.5828
H    5.5691   -0.0340    1.8666
H    2.1557   -2.2967    0.0103
H   -3.4043   -2.9544   -0.4955
H   -5.2887   -1.3868   -0.3936


