%nprocshared=4
%mem=100MW
%chk=PWATWSYOIIXYMA-UHFFFAOYSA-N.chk
#b3lyp/6-31+G(d) opt freq

gas opt

0 1
C    2.6939   -0.0010   -0.4016
C    1.2685    0.0003    0.1543
C    0.2693   -0.0023   -1.0044
C   -1.1348   -0.0010   -0.4568
C   -1.7787    1.1967   -0.2084
C   -3.0665    1.1979    0.2938
C   -3.7106    0.0014    0.5473
C   -3.0671   -1.1964    0.2981
C   -1.7808   -1.1976   -0.2083
C    3.6932    0.0016    0.7570
C    5.1186    0.0003    0.2011
H    2.8457   -0.8924   -1.0103
H    2.8458    0.8876   -1.0144
H    1.1167   -0.8883    0.7670
H    1.1167    0.8917    0.7629
H    0.4211    0.8863   -1.6171
H    0.4210   -0.8937   -1.6131
H   -1.2754    2.1316   -0.4065
H   -3.5693    2.1337    0.4886
H   -4.7166    0.0023    0.9404
H   -3.5702   -2.1312    0.4964
H   -1.2780   -2.1333   -0.4030
H    3.5414    0.8930    1.3657
H    3.5413   -0.8870    1.3697
H    5.8305    0.0021    1.0265
H    5.2704   -0.8911   -0.4076
H    5.2705    0.8888   -0.4117


