%nprocshared=4
%mem=100MW
%chk=QAYICIQNSGETAS-UHFFFAOYSA-N.chk
#b3lyp/6-31+G(d) opt freq

gas opt

0 1
S   -2.6182   -0.2172    0.0493
C   -0.9078   -0.1538    0.0110
N   -0.3141    1.0341   -0.0640
C   -1.1877    2.2095   -0.0254
C    1.1085    1.2844   -0.1796
N    1.9215    0.1646    0.2924
C    3.3529    0.4871    0.2224
C    1.6188   -1.0612   -0.4666
S   -0.0040   -1.6634    0.0796
H   -2.2255    1.8881    0.0627
H   -0.9253    2.8292    0.8321
H   -1.0623    2.7857   -0.9421
H    1.3478    1.4763   -1.2255
H    1.3580    2.1705    0.4041
H    3.5603    1.3568    0.8459
H    3.9347   -0.3628    0.5792
H    3.6259    0.7066   -0.8097
H    1.5936   -0.8378   -1.5332
H    2.3782   -1.8167   -0.2652


