%nprocshared=4
%mem=100MW
%chk=QCDWFXQBSFUVSP-UHFFFAOYSA-N.chk
#b3lyp/6-31+G(d) opt freq

gas opt

0 1
O   -0.8618    0.4233    0.2701
C   -1.7016   -0.7323    0.2326
C   -3.1605   -0.3087    0.4147
O   -3.5670    0.4903   -0.6981
C    0.4738    0.2205    0.1222
C    1.3473    1.2979    0.1486
C    2.7046    1.0891   -0.0020
C    3.1926   -0.1925   -0.1789
C    2.3240   -1.2679   -0.2060
C    0.9665   -1.0650   -0.0497
H   -1.5862   -1.2342   -0.7280
H   -1.4182   -1.4136    1.0349
H   -3.7915   -1.1954    0.4751
H   -3.2588    0.2704    1.3329
H   -4.4834    0.7950   -0.6497
H    0.9666    2.2991    0.2864
H    3.3850    1.9275    0.0181
H    4.2540   -0.3537   -0.2965
H    2.7076   -2.2679   -0.3451
H    0.2884   -1.9053   -0.0709


