%nprocshared=4
%mem=100MW
%chk=QHTQREMOGMZHJV-UHFFFAOYSA-N.chk
#b3lyp/6-31+G(d) opt freq

gas opt

0 1
Cl   -5.7930   -0.4560    0.3384
C   -4.1309   -0.0294    0.0754
C   -3.4535    0.7269    1.0152
C   -2.1303    1.0663    0.8052
C   -1.4837    0.6506   -0.3438
C   -0.0411    1.0214   -0.5724
S    1.0293   -0.2580    0.1300
C    2.6094    0.4123   -0.2685
O    2.6888    1.4702   -0.8631
N    3.7300   -0.2475    0.0856
C    3.6345   -1.5219    0.8018
C    3.5832   -2.6712   -0.2069
C    5.0438    0.3098   -0.2457
C    5.5191    1.2095    0.8969
C   -2.1599   -0.1055   -1.2830
C   -3.4815   -0.4504   -1.0714
H   -3.9587    1.0524    1.9126
H   -1.6014    1.6567    1.5388
H    0.1473    1.1054   -1.6427
H    0.1694    1.9762   -0.0904
H    4.5052   -1.6426    1.4463
H    2.7291   -1.5305    1.4088
H    3.5121   -3.6194    0.3260
H    2.7125   -2.5504   -0.8514
H    4.4886   -2.6625   -0.8138
H    5.7569   -0.5018   -0.3898
H    4.9695    0.8952   -1.1622
H    4.8059    2.0211    1.0410
H    5.5933    0.6241    1.8134
H    6.4965    1.6241    0.6504
H   -1.6542   -0.4303   -2.1803
H   -4.0097   -1.0411   -1.8052


