%nprocshared=4
%mem=100MW
%chk=QHXDTLYEHWXDSO-UHFFFAOYSA-N.chk
#b3lyp/6-31+G(d) opt freq

gas opt

0 1
Cl   -0.0001   -3.5965    0.0005
C   -0.0001   -1.8605    0.0008
N    1.1446   -1.2005    0.0667
C    1.1479    0.1303    0.0667
N    2.3424    0.8180    0.1351
C    3.6076    0.0831    0.2077
C    4.1306   -0.1729   -1.2072
C    2.3451    2.2830    0.1350
C    2.2636    2.7933    1.5751
N   -0.0000    0.7961    0.0004
C   -1.1480    0.1304   -0.0657
N   -2.3423    0.8182   -0.1347
C   -3.6076    0.0833   -0.2076
C   -4.1312   -0.1723    1.2072
C   -2.3450    2.2832   -0.1350
C   -2.2629    2.7930   -1.5752
N   -1.1444   -1.2004   -0.0704
H    4.3377    0.6709    0.7641
H    3.4463   -0.8689    0.7133
H    3.4005   -0.7606   -1.7636
H    4.2919    0.7792   -1.7127
H    5.0720   -0.7197   -1.1531
H    3.2637    2.6446   -0.3271
H    1.4867    2.6480   -0.4289
H    1.3450    2.4317    2.0372
H    3.1220    2.4283    2.1390
H    2.2656    3.8833    1.5751
H   -4.3375    0.6710   -0.7644
H   -3.4462   -0.8689   -0.7128
H   -5.0726   -0.7190    1.1530
H   -3.4013   -0.7599    1.7640
H   -4.2926    0.7799    1.7124
H   -3.2638    2.6449    0.3267
H   -1.4868    2.6482    0.4291
H   -1.3441    2.4312   -2.0369
H   -3.1212    2.4280   -2.1394
H   -2.2649    3.8830   -1.5755


