%nprocshared=4
%mem=100MW
%chk=QIBWCUCLHZVYNL-UHFFFAOYSA-N.chk
#b3lyp/6-31+G(d) opt freq

gas opt

0 1
O   -1.0095   -2.7915    0.9053
C   -0.5353   -1.7868    0.4114
N    0.7848   -1.6793    0.4147
C    1.5291   -2.7725    1.0448
C    1.5416   -0.6361   -0.1182
C    1.1415    0.6893    0.0105
N   -0.0826    1.0214    0.6037
C   -0.1207    1.8328    1.8229
C   -0.1963    3.3141    1.4475
C   -1.2560    0.5733    0.0228
N   -2.1596    1.4455   -0.3997
C   -3.2596    1.0633   -1.0180
C   -3.5214   -0.2745   -1.2530
C   -2.6271   -1.2314   -0.8058
C   -1.4757   -0.8069   -0.1390
C    1.9505    1.7064   -0.4788
C    3.1338    1.4025   -1.1257
C    3.5152    0.0840   -1.2861
C    2.7250   -0.9327   -0.7842
H    0.8296   -3.5200    1.4190
H    2.1924   -3.2307    0.3112
H    2.1192   -2.3803    1.8731
H   -0.9967    1.5621    2.4123
H    0.7810    1.6518    2.4081
H    0.6798    3.5847    0.8582
H   -1.0979    3.4950    0.8623
H   -0.2246    3.9178    2.3546
H   -3.9692    1.8082   -1.3466
H   -4.4162   -0.5698   -1.7807
H   -2.8131   -2.2823   -0.9712
H    1.6542    2.7374   -0.3540
H    3.7602    2.1957   -1.5062
H    4.4323   -0.1524   -1.8050
H    3.0285   -1.9616   -0.9095


