%nprocshared=4
%mem=100MW
%chk=QIQXTHQIDYTFRH-UHFFFAOYSA-N.chk
#b3lyp/6-31+G(d) opt freq

gas opt

0 1
O    9.3358   -1.3652    0.0005
C    9.4224   -0.1601    0.0010
O   10.6300    0.4260   -0.0043
C    8.1747    0.6850    0.0012
C    6.9435   -0.2234    0.0008
C    5.6767    0.6346    0.0010
C    4.4455   -0.2737    0.0006
C    3.1788    0.5843    0.0008
C    1.9476   -0.3241    0.0004
C    0.6808    0.5339    0.0006
C   -0.5504   -0.3744    0.0002
C   -1.8172    0.4836    0.0004
C   -3.0484   -0.4248   -0.0001
C   -4.3152    0.4332    0.0002
C   -5.5463   -0.4751   -0.0003
C   -6.8131    0.3829   -0.0000
C   -8.0443   -0.5255   -0.0005
C   -9.3111    0.3325   -0.0002
C  -10.5423   -0.5758   -0.0007
C  -11.8091    0.2822   -0.0004
H   11.4011   -0.1574   -0.0084
H    8.1620    1.3138    0.8915
H    8.1621    1.3145   -0.8885
H    6.9563   -0.8522   -0.8895
H    6.9561   -0.8529    0.8905
H    5.6640    1.2635    0.8913
H    5.6641    1.2642   -0.8887
H    4.4583   -0.9025   -0.8897
H    4.4582   -0.9032    0.8903
H    3.1660    1.2131    0.8911
H    3.1661    1.2138   -0.8889
H    1.9603   -0.9529   -0.8899
H    1.9602   -0.9536    0.8901
H    0.6680    1.1628    0.8909
H    0.6682    1.1635   -0.8891
H   -0.5377   -1.0032   -0.8901
H   -0.5378   -1.0040    0.8899
H   -1.8299    1.1124    0.8906
H   -1.8298    1.1131   -0.8893
H   -3.0356   -1.0536   -0.8903
H   -3.0358   -1.0543    0.8897
H   -4.3279    1.0621    0.8904
H   -4.3278    1.0628   -0.8895
H   -5.5336   -1.1039   -0.8905
H   -5.5337   -1.1047    0.8895
H   -6.8259    1.0117    0.8902
H   -6.8257    1.0124   -0.8897
H   -8.0316   -1.1543   -0.8907
H   -8.0317   -1.1550    0.8893
H   -9.3239    0.9614    0.8900
H   -9.3237    0.9621   -0.8899
H  -10.5295   -1.2046   -0.8909
H  -10.5297   -1.2054    0.8891
H  -12.6862   -0.3649   -0.0007
H  -11.8218    0.9110    0.8898
H  -11.8217    0.9117   -0.8901


