%nprocshared=4
%mem=100MW
%chk=QKLSCPPJEVXONT-UHFFFAOYSA-N.chk
#b3lyp/6-31+G(d) opt freq

gas opt

0 1
S    1.1344   -1.9082   -0.3018
O    1.9038   -2.9506    0.2821
O    0.7695   -1.8873   -1.6750
N   -0.2783   -1.8314    0.5587
C   -1.2327   -0.8779    0.2404
N   -1.0238   -0.0189   -0.7553
C   -1.9264    0.8896   -1.0637
C   -1.6483    1.8418   -2.1982
N   -3.0656    0.9894   -0.4091
C   -3.3491    0.1683    0.5981
O   -4.5238    0.2791    1.2654
C   -5.4202    1.3053    0.8348
C   -2.4267   -0.8078    0.9533
C    2.0126   -0.4113    0.0025
C    2.9003   -0.3351    1.0602
C    3.5902    0.8367    1.3016
C    3.3916    1.9395    0.4806
N    4.0881    3.1260    0.7216
C    2.4992    1.8595   -0.5810
C    1.8168    0.6829   -0.8201
H   -0.4380   -2.4537    1.2854
H   -2.0177    1.4141   -3.1303
H   -2.1519    2.7897   -2.0086
H   -0.5743    2.0102   -2.2762
H   -4.9349    2.2763    0.9329
H   -5.6903    1.1378   -0.2079
H   -6.3191    1.2844    1.4508
H   -2.6273   -1.4900    1.7662
H    3.0539   -1.1927    1.6983
H    4.2830    0.8957    2.1279
H    4.7112    3.1805    1.4629
H    3.9486    3.8954    0.1476
H    2.3425    2.7150   -1.2211
H    1.1231    0.6199   -1.6454


