%nprocshared=4
%mem=100MW
%chk=QNIUOGIMJWORNZ-UHFFFAOYSA-N.chk
#b3lyp/6-31+G(d) opt freq

gas opt

0 1
O    1.8723   -3.0274    0.1766
C    1.4722   -1.9026   -0.0495
O    2.3452   -0.9304   -0.3788
C    3.7481   -1.2988   -0.4443
C    4.5797   -0.0737   -0.8297
N    4.4990    0.9293    0.2406
C    5.5686    1.9275    0.1083
C    5.7083    2.7022    1.4202
C    3.1784    1.5723    0.2611
C    2.8747    2.1577   -1.1195
C    0.0305   -1.6029    0.0304
C   -0.8775   -2.6113    0.3662
C   -2.2227   -2.3273    0.4397
C   -2.6783   -1.0397    0.1805
O   -4.0050   -0.7639    0.2540
C   -4.4047    0.5795   -0.0243
C   -5.9245    0.6970    0.1072
C   -6.3525    2.1354   -0.1908
C   -7.8723    2.2529   -0.0593
C   -1.7787   -0.0339   -0.1533
C   -0.4314   -0.3082   -0.2238
H    4.0730   -1.6669    0.5289
H    3.8841   -2.0801   -1.1921
H    5.6188   -0.3701   -0.9724
H    4.1927    0.3514   -1.7558
H    6.5087    1.4248   -0.1187
H    5.3226    2.6190   -0.6976
H    4.7469    3.1410    1.6872
H    6.0301    2.0238    2.2103
H    6.4475    3.4939    1.2977
H    2.4188    0.8340    0.5178
H    3.1745    2.3707    1.0032
H    3.6824    2.8267   -1.4162
H    2.7871    1.3495   -1.8456
H    1.9381    2.7139   -1.0802
H   -0.5244   -3.6119    0.5673
H   -2.9249   -3.1059    0.6987
H   -3.9254    1.2553    0.6839
H   -4.1062    0.8446   -1.0386
H   -6.4038    0.0211   -0.6010
H   -6.2230    0.4318    1.1214
H   -5.8732    2.8112    0.5174
H   -6.0540    2.4005   -1.2051
H   -8.1708    1.9877    0.9549
H   -8.1772    3.2776   -0.2716
H   -8.3516    1.5770   -0.7675
H   -2.1368    0.9652   -0.3535
H    0.2669    0.4740   -0.4828


