%nprocshared=4
%mem=100MW
%chk=QQBKLRXLVRDKEB-UHFFFAOYSA-N.chk
#b3lyp/6-31+G(d) opt freq

gas opt

0 1
O    0.7875    0.2827    2.0779
C    0.9511    0.3780    0.8805
N    2.0680    0.7773    0.2407
C    3.3061    1.1739    0.9161
O    4.2749    0.1316    0.7854
C    1.9067    0.7662   -1.0874
O    2.7744    1.0860   -1.8761
N    0.6768    0.3614   -1.4523
C   -0.0559    0.0663   -0.2089
C   -0.4636   -1.3838   -0.1650
C   -0.5147   -2.1230   -1.3320
C   -0.8887   -3.4532   -1.2918
C   -1.2111   -4.0443   -0.0845
C   -1.1591   -3.3054    1.0826
C   -0.7809   -1.9763    1.0429
C   -1.2611    0.9616   -0.0785
C   -1.9396    1.0366    1.1236
C   -3.0452    1.8577    1.2431
C   -3.4720    2.6042    0.1608
C   -2.7930    2.5299   -1.0410
C   -1.6848    1.7120   -1.1593
H    3.6912    2.0870    0.4621
H    3.1031    1.3510    1.9723
H    5.1216    0.3262    1.2099
H    0.3393    0.2771   -2.3578
H   -0.2629   -1.6611   -2.2752
H   -0.9294   -4.0305   -2.2036
H   -1.5040   -5.0833   -0.0532
H   -1.4113   -3.7671    2.0258
H   -0.7402   -1.3990    1.9548
H   -1.6062    0.4533    1.9692
H   -3.5757    1.9157    2.1820
H   -4.3362    3.2452    0.2540
H   -3.1267    3.1128   -1.8867
H   -1.1543    1.6540   -2.0982


