%nprocshared=4
%mem=100MW
%chk=QQODLKZGRKWIFG-UHFFFAOYSA-N.chk
#b3lyp/6-31+G(d) opt freq

gas opt

0 1
Cl   -6.6285    0.6036   -0.3369
C   -5.2509   -0.2839   -0.9097
C   -4.1190   -0.2404   -0.2451
C   -4.0161    0.5800    1.0149
C   -3.6557   -0.1537    2.3082
C   -4.2952    0.3454    3.6053
C   -3.4278   -1.6643    2.2234
C   -2.6272    0.7553    1.6322
C   -1.4668    0.0944    0.9338
O   -1.3752   -1.1104    0.9226
O   -0.5351    0.8440    0.3243
C    0.5543    0.1398   -0.3282
C    0.1885   -0.1430   -1.7257
N   -0.0939   -0.3613   -2.8042
C    1.7951    0.9945   -0.2969
C    3.0366    0.4036   -0.1563
C    4.1784    1.1896   -0.1279
O    5.4006    0.6105    0.0098
C    5.4577   -0.7438    0.1049
C    5.5836   -1.5163   -1.0409
C    5.6420   -2.8928   -0.9413
C    5.5750   -3.5010    0.2987
C    5.4491   -2.7335    1.4419
C    5.3960   -1.3564    1.3484
C    4.0711    2.5706   -0.2409
F    5.1813    3.3399   -0.2141
C    2.8262    3.1561   -0.3813
C    1.6903    2.3677   -0.4144
Cl   -5.3716   -1.2347   -2.3571
H   -3.2620   -0.7926   -0.6014
H   -4.7092    1.4180    1.0881
H   -5.0021   -0.3990    3.9718
H   -3.5195    0.5091    4.3534
H   -4.8198    1.2818    3.4149
H   -3.4155   -1.9718    1.1778
H   -2.4735   -1.9144    2.6870
H   -4.2321   -2.1829    2.7452
H   -2.4063    1.7089    2.1116
H    0.7455   -0.7976    0.1942
H    3.1173   -0.6698   -0.0683
H    5.6356   -1.0418   -2.0097
H    5.7396   -3.4946   -1.8328
H    5.6208   -4.5774    0.3743
H    5.3963   -3.2111    2.4092
H    5.2979   -0.7574    2.2417
H    2.7412    4.2291   -0.4692
H    0.7188    2.8266   -0.5245


