%nprocshared=4
%mem=100MW
%chk=QRXWMOHMRWLFEY-UHFFFAOYSA-N.chk
#b3lyp/6-31+G(d) opt freq

gas opt

0 1
O    1.6886   -1.4616   -0.0111
C    1.2390   -0.3327   -0.0088
N    2.0740    0.7252   -0.0164
N    3.4257    0.5283   -0.0266
C   -0.2270   -0.1192   -0.0038
C   -1.1109   -1.2026   -0.0017
C   -2.4705   -0.9578    0.0034
N   -2.9362    0.2754    0.0059
C   -2.1381    1.3244    0.0040
C   -0.7651    1.1713    0.0048
H    1.7152    1.6263   -0.0145
H    3.9193    1.4083   -0.0314
H    3.7138   -0.0436    0.7531
H   -0.7363   -2.2155   -0.0045
H   -3.1612   -1.7880    0.0050
H   -2.5633    2.3172    0.0062
H   -0.1172    2.0353    0.0037


