%nprocshared=4
%mem=100MW
%chk=QSNYNWOQOIJCFV-UHFFFAOYSA-N.chk
#b3lyp/6-31+G(d) opt freq

gas opt

0 1
F    1.1085   -1.7568   -0.8154
C    0.7140   -0.4802   -0.6157
C    1.6382    0.5518   -0.6809
N    2.9760    0.2664   -0.9529
C    3.8717    1.1619   -0.1974
C    4.7683   -0.0545    0.0732
N    5.3169   -0.1063    1.4350
C    6.5636   -0.8825    1.4711
C    3.4625   -0.8407   -0.1087
C    1.2398    1.8746   -0.4768
F    2.1517    2.8691   -0.5439
C   -0.0680    2.1681   -0.2099
C   -1.0107    1.1398   -0.1404
C   -2.4267    1.4250    0.1458
O   -2.8202    2.5638    0.3299
C   -3.3474    0.2774    0.1998
C   -4.7758    0.4790    0.4794
O   -5.5275   -0.4755    0.5218
O   -5.2526    1.7224    0.6890
C   -2.8477   -0.9906   -0.0169
N   -1.5524   -1.2121   -0.2748
C   -1.1059   -2.5903   -0.4927
C   -1.1655   -3.5489    0.6983
C   -2.1669   -3.6918   -0.4495
C   -0.6215   -0.1960   -0.3496
H    4.3475    1.9230   -0.8158
H    3.4155    1.5739    0.7028
H    5.5152   -0.2390   -0.6990
H    5.4584    0.8223    1.8034
H    6.3676   -1.9005    1.1343
H    7.2999   -0.4182    0.8151
H    6.9482   -0.9049    2.4907
H    2.8970   -0.9632    0.8151
H    3.5913   -1.7768   -0.6520
H   -0.3717    3.1925   -0.0527
H   -6.1991    1.8050    0.8693
H   -3.5235   -1.8321    0.0232
H   -0.2820   -2.7120   -1.1959
H   -0.3810   -4.3014    0.7785
H   -1.5368   -3.1541    1.6440
H   -3.1971   -3.3911   -0.2590
H   -2.0413   -4.5384   -1.1245


