%nprocshared=4
%mem=100MW
%chk=QTBSBXVTEAMEQO-UHFFFAOYSA-N.chk
#b3lyp/6-31+G(d) opt freq

gas opt

0 1
O    0.2607   -1.2382   -0.0004
C    0.0115   -0.0559    0.0016
O    1.0105    0.8405   -0.0002
C   -1.4209    0.4122   -0.0004
H    1.9127    0.4925   -0.0029
H   -1.7684    0.5229    1.0268
H   -1.4888    1.3720   -0.5124
H   -2.0417   -0.3199   -0.5170


