%nprocshared=4
%mem=100MW
%chk=QUIKDFWIKDMXIO-UHFFFAOYSA-N.chk
#b3lyp/6-31+G(d) opt freq

gas opt

0 1
O   -1.0292   -1.0905   -0.6412
C   -1.2293    0.0528   -0.2895
C   -0.0686    0.9456    0.0669
O    1.1736    0.2103   -0.0903
C    2.3142    0.8697    0.1905
O    2.2723    2.0272    0.5566
C    3.6161    0.1851    0.0532
C    4.8003    0.8656    0.3434
C    6.0125    0.2201    0.2135
C    6.0566   -1.0984   -0.2037
C    4.8869   -1.7785   -0.4934
C    3.6676   -1.1471   -0.3618
N   -2.4892    0.5267   -0.2226
C   -3.7075   -0.2301   -0.5460
C   -3.8369   -1.4127    0.3790
O   -2.9961   -1.6119    1.2300
N   -4.8871   -2.2492    0.2605
C   -4.9049    0.7235   -0.3494
C   -4.2552    2.1271   -0.4723
C   -2.8744    1.8877    0.1930
H   -0.0626    1.8140   -0.5918
H   -0.1676    1.2748    1.1012
H    4.7673    1.8949    0.6685
H    6.9292    0.7452    0.4377
H    7.0083   -1.5989   -0.3040
H    4.9285   -2.8074   -0.8192
H    2.7553   -1.6791   -0.5882
H   -3.6684   -0.5712   -1.5805
H   -5.5596   -2.0899   -0.4201
H   -4.9704   -3.0104    0.8559
H   -5.6497    0.5735   -1.1310
H   -5.3474    0.5885    0.6376
H   -4.1442    2.4161   -1.5174
H   -4.8284    2.8726    0.0788
H   -2.9604    1.9486    1.2779
H   -2.1466    2.6124   -0.1720


