%nprocshared=4
%mem=100MW
%chk=QWCJHSGMANYXCW-UHFFFAOYSA-N.chk
#b3lyp/6-31+G(d) opt freq

gas opt

0 1
S    1.0645    0.5524    1.7353
O    1.2774    1.9566    1.7814
O    1.1476   -0.2843    2.8808
N   -0.4494    0.3296    1.1023
C   -0.8287    1.0105   -0.0507
N   -1.9638    0.8027   -0.7722
C   -2.9634   -0.1375   -0.4868
C   -4.3004    0.1942   -0.6606
C   -5.2831   -0.7343   -0.3785
C   -4.9366   -1.9933    0.0766
C   -3.6059   -2.3265    0.2511
C   -2.6184   -1.4043   -0.0352
N   -1.9549    1.6965   -1.8507
C   -0.8623    2.4137   -1.7846
C   -0.1351    2.0111   -0.6607
C    2.2178   -0.0876    0.5669
C    2.8274    0.7627   -0.3374
C    3.7318    0.2644   -1.2545
C    4.0288   -1.0926   -1.2679
N    4.9434   -1.5998   -2.1937
C    3.4146   -1.9438   -0.3581
C    2.5154   -1.4380    0.5600
H   -1.0718   -0.2756    1.5351
H   -4.5717    1.1775   -1.0157
H   -6.3233   -0.4768   -0.5132
H   -5.7068   -2.7177    0.2965
H   -3.3384   -3.3103    0.6074
H   -1.5793   -1.6651    0.1010
H   -0.5734    3.1890   -2.4788
H    0.8122    2.4168   -0.3375
H    2.5958    1.8175   -0.3267
H    4.2074    0.9288   -1.9607
H    5.3719   -1.0044   -2.8283
H    5.1499   -2.5475   -2.2021
H    3.6432   -2.9993   -0.3658
H    2.0377   -2.0992    1.2679


