%nprocshared=4
%mem=100MW
%chk=QWCKQJZIFLGMSD-UHFFFAOYSA-N.chk
#b3lyp/6-31+G(d) opt freq

gas opt

0 1
O    1.7068   -0.8025    0.5962
C    1.1412    0.0639   -0.0278
O    1.7977    1.1848   -0.3659
C   -0.2994   -0.1166   -0.4317
N   -0.6433   -1.5443   -0.3940
C   -1.2008    0.6510    0.5374
C   -2.6511    0.5712    0.0567
H    2.7213    1.2534   -0.0880
H   -0.4439    0.2654   -1.4423
H   -0.5175   -1.9221    0.5331
H   -1.5848   -1.6982   -0.7225
H   -1.1229    0.2113    1.5317
H   -0.8877    1.6943    0.5759
H   -2.7290    1.0109   -0.9376
H   -2.9642   -0.4722    0.0182
H   -3.2933    1.1180    0.7471


