%nprocshared=4
%mem=100MW
%chk=QWUWMCYKGHVNAV-UHFFFAOYSA-N.chk
#b3lyp/6-31+G(d) opt freq

gas opt

0 1
C    0.3984    0.0000   -0.6531
C   -0.3984    0.0000    0.6531
C   -1.8729    0.0000    0.3421
C   -2.5492   -1.1972    0.1995
C   -3.9018   -1.1972   -0.0859
C   -4.5782    0.0000   -0.2281
C   -3.9021    1.1972   -0.0846
C   -2.5504    1.1971    0.2050
C    1.8729    0.0000   -0.3421
C    2.5492   -1.1972   -0.1995
C    3.9018   -1.1972    0.0859
C    4.5782    0.0000    0.2281
C    3.9021    1.1972    0.0846
C    2.5504    1.1971   -0.2050
H    0.1489   -0.8900   -1.2308
H    0.1489    0.8900   -1.2308
H   -0.1489   -0.8900    1.2308
H   -0.1489    0.8900    1.2308
H   -2.0208   -2.1325    0.3106
H   -4.4300   -2.1325   -0.1980
H   -5.6348    0.0000   -0.4517
H   -4.4304    2.1325   -0.1960
H   -2.0221    2.1324    0.3172
H    2.0208   -2.1325   -0.3106
H    4.4300   -2.1325    0.1980
H    5.6348    0.0000    0.4517
H    4.4304    2.1325    0.1960
H    2.0221    2.1324   -0.3172


