%nprocshared=4
%mem=100MW
%chk=QWVGKYWNOKOFNN-UHFFFAOYSA-N.chk
#b3lyp/6-31+G(d) opt freq

gas opt

0 1
O    1.6583   -1.3900   -0.0333
C    0.4934   -0.6902   -0.0178
C    0.5163    0.6971   -0.0056
C    1.8332    1.4298   -0.0102
C   -0.6690    1.4060    0.0102
C   -1.8778    0.7343    0.0145
C   -1.9032   -0.6478    0.0028
C   -0.7204   -1.3615   -0.0198
H    2.0025   -1.6004    0.8455
H    2.1420    1.6155   -1.0389
H    1.7224    2.3795    0.5131
H    2.5876    0.8241    0.4919
H   -0.6518    2.4859    0.0197
H   -2.8035    1.2905    0.0272
H   -2.8485   -1.1701    0.0065
H   -0.7408   -2.4413   -0.0288


