%nprocshared=4
%mem=100MW
%chk=QXJKBPAVAHBARF-UHFFFAOYSA-N.chk
#b3lyp/6-31+G(d) opt freq

gas opt

0 1
Cl    3.2218   -2.6989    0.5084
C    2.3841   -1.2044    0.2282
C    3.1002   -0.0367    0.0321
C    2.4352    1.1560   -0.1915
Cl    3.3370    2.6189   -0.4372
C    1.0533    1.1835   -0.2198
C    0.3328    0.0133   -0.0238
N   -1.0687    0.0385   -0.0526
C   -1.7991   -0.9271   -0.6238
O   -1.3544   -1.9136   -1.1704
C   -3.2676   -0.5923   -0.4788
C   -4.2262   -1.7298   -0.1211
C   -3.2591    0.7484    0.2835
C   -4.2162    1.0361    1.4419
C   -1.7868    1.0274    0.4939
O   -1.3298    1.9964    1.0612
C   -3.8044    0.6629   -1.1695
C    1.0022   -1.1829    0.1955
H    4.1798   -0.0562    0.0539
H    0.5347    2.1147   -0.3940
H   -4.1082   -1.9870    0.9316
H   -5.2524   -1.4114   -0.3045
H   -4.0010   -2.6015   -0.7355
H   -4.0548    0.3072    2.2361
H   -4.0305    2.0391    1.8261
H   -5.2451    0.9670    1.0888
H   -3.1973    1.1029   -1.9607
H   -4.8829    0.7418   -1.3068
H    0.4437   -2.0945    0.3483


