%nprocshared=4
%mem=100MW
%chk=QXKHYNVANLEOEG-UHFFFAOYSA-N.chk
#b3lyp/6-31+G(d) opt freq

gas opt

0 1
O   -0.4420   -2.1932    0.3878
C   -0.4239   -3.0034   -0.7891
C   -0.4992   -0.8457    0.2092
C   -1.7319   -0.2064    0.1331
O   -3.0047   -0.6501    0.2013
C   -3.8755    0.3665    0.0730
C   -3.2189    1.5224   -0.0850
C   -1.7880    1.1887   -0.0513
C   -0.6203    1.9331   -0.1586
C    0.6132    1.2866   -0.0820
C    0.6728   -0.1090    0.1087
O    1.8756   -0.7241    0.1818
C    3.0225   -0.0363    0.0769
O    4.0809   -0.6345    0.1486
C    3.0354    1.3617   -0.1149
C    1.8645    2.0435   -0.1910
H   -1.3293   -2.8229   -1.3685
H    0.4490   -2.7505   -1.3909
H   -0.3774   -4.0549   -0.5057
H   -4.9505    0.2649    0.0939
H   -3.6533    2.5030   -0.2121
H   -0.6671    3.0027   -0.3004
H    3.9748    1.8884   -0.1958
H    1.8544    3.1135   -0.3375


