%nprocshared=4
%mem=100MW
%chk=QYPNKSZPJQQLRK-UHFFFAOYSA-N.chk
#b3lyp/6-31+G(d) opt freq

gas opt

0 1
O   -3.7269    1.1802   -0.0166
C   -2.6115    0.7068    0.0798
N   -1.5497    1.5161    0.2641
N   -0.2779    0.9666    0.4727
C    0.6570    1.0450   -0.4949
O    0.3968    1.5924   -1.5485
C    1.9990    0.4650   -0.2749
C    2.9695    0.5445   -1.2749
C    4.2198    0.0012   -1.0631
C    4.5126   -0.6217    0.1372
C    5.8804   -1.2133    0.3613
C    6.7983   -0.1563    0.9786
C    3.5552   -0.7034    1.1327
C    2.3029   -0.1593    0.9360
C   -1.7253    2.9705    0.2463
C   -2.6988    3.3802    1.3533
C   -0.3742    3.6502    0.4780
C   -2.2862    3.3999   -1.1108
C   -2.4204   -0.7571    0.0011
C   -3.4717   -1.6192    0.3169
C   -3.2869   -2.9842    0.2409
C   -4.4209   -3.9166    0.5810
C   -2.0627   -3.4991   -0.1472
C   -1.0165   -2.6500   -0.4616
C    0.3133   -3.2197   -0.8839
C   -1.1896   -1.2830   -0.3948
H   -0.0703    0.5297    1.3134
H    2.7420    1.0298   -2.2125
H    4.9717    0.0620   -1.8360
H    5.8015   -2.0652    1.0366
H    6.2945   -1.5423   -0.5918
H    6.3841    0.1727    1.9317
H    7.7876   -0.5842    1.1407
H    6.8771    0.6956    0.3033
H    3.7902   -1.1907    2.0675
H    1.5566   -0.2234    1.7140
H   -2.2992    3.0743    2.3201
H   -2.8294    4.4623    1.3400
H   -3.6612    2.8960    1.1882
H    0.3193    3.3583   -0.3106
H   -0.5049    4.7322    0.4647
H    0.0254    3.3442    1.4448
H   -3.2487    2.9157   -1.2759
H   -2.4168    4.4819   -1.1241
H   -1.5926    3.1080   -1.8994
H   -4.4276   -1.2186    0.6204
H   -4.9995   -4.1281   -0.3182
H   -4.0186   -4.8471    0.9815
H   -5.0649   -3.4489    1.3258
H   -1.9231   -4.5685   -0.2047
H    0.3281   -3.3435   -1.9667
H    1.1112   -2.5400   -0.5849
H    0.4623   -4.1877   -0.4054
H   -0.3722   -0.6213   -0.6405


