%nprocshared=4
%mem=100MW
%chk=RDJGWRFTDZZXSM-UHFFFAOYSA-N.chk
#b3lyp/6-31+G(d) opt freq

gas opt

0 1
O   -2.2564   -0.2603    0.0127
C   -3.2471   -0.9448    0.7822
C   -4.6185   -0.5748    0.2786
C   -5.2120   -1.3214   -0.7219
C   -6.4699   -0.9820   -1.1839
C   -7.1344    0.1038   -0.6451
C   -6.5412    0.8499    0.3561
C   -5.2851    0.5079    0.8211
C   -0.9559   -0.4853    0.3405
C    0.0893    0.1352   -0.3505
O    0.1096    1.0411   -1.3552
C    1.4024    1.7473   -1.2798
C    1.2066    2.7082   -0.1017
O    0.0580    2.2876    0.6371
C    2.3581    2.7959    0.8320
C    3.3835    2.0052    0.8648
C    3.5677    0.9093   -0.1182
C    2.3095    0.5855   -0.8888
C    1.3887   -0.1800    0.0279
C    1.7481   -0.9728    1.0912
C    0.7050   -1.5848    1.7626
C   -0.6055   -1.3402    1.3836
C    3.1929   -1.0799    1.4576
C    4.1152   -0.3834    0.4708
N    4.4430   -1.2902   -0.6428
C    5.0798   -2.5192   -0.1509
C    3.2872   -1.5998   -1.4880
C    2.6738   -0.3167   -2.0711
H   -3.1027   -2.0208    0.6857
H   -3.1553   -0.6584    1.8299
H   -4.6929   -2.1698   -1.1429
H   -6.9333   -1.5650   -1.9661
H   -8.1169    0.3694   -1.0065
H   -7.0602    1.6984    0.7768
H   -4.8217    1.0908    1.6033
H    1.6879    2.2486   -2.2046
H    1.0124    3.7044   -0.4990
H   -0.1409    2.8420    1.4041
H    2.3384    3.5978    1.5552
H    4.1291    2.1485    1.6328
H    4.3041    1.2525   -0.8449
H    0.9121   -2.2512    2.5868
H   -1.3960   -1.8452    1.9189
H    3.3376   -0.6384    2.4436
H    3.4645   -2.1344    1.5059
H    5.0477   -0.1513    0.9853
H    4.3569   -3.0978    0.4243
H    5.4285   -3.1114   -0.9969
H    5.9264   -2.2604    0.4850
H    3.6042   -2.2484   -2.3046
H    2.5358   -2.1174   -0.8917
H    1.7779   -0.5597   -2.6425
H    3.3996    0.1842   -2.7116


