%nprocshared=4
%mem=100MW
%chk=RDLPVSKMFDYCOR-UEKVPHQBSA-N.chk
#b3lyp/6-31+G(d) opt freq

gas opt

0 1
O   -1.9190   -2.3655   -0.8417
C   -1.7866   -1.4777   -0.0261
N   -0.7061   -0.6736   -0.0747
C    0.3084   -0.8719   -1.1127
H   -0.0924   -1.3562   -2.0032
C    1.5732   -1.5214   -0.5966
O    1.9156   -2.6486   -0.3077
N    2.1524   -0.3115   -0.5971
C    3.2737    0.2971    0.0011
C    3.2981    1.6054    0.1973
C    4.5221    2.1416    0.8939
C    2.2697    2.6197   -0.1829
S    0.6389    1.8655   -0.4648
C    1.1075    0.3843   -1.4199
H    1.3476    0.5705   -2.4667
C    4.4247   -0.5277    0.4108
O    5.5342   -0.0357    0.4700
O    4.2464   -1.8273    0.7197
C   -2.8334   -1.2698    1.0380
H   -2.3473   -1.0321    1.9842
N   -3.6275   -2.4963    1.1899
C   -3.7374   -0.1324    0.6379
C   -3.7385    0.9446    1.3629
C   -4.5991    2.1323    1.0528
C   -5.0550    2.1132   -0.3751
C   -5.0535    1.0363   -1.1002
C   -4.5920   -0.2910   -0.5835
H   -0.6002    0.0365    0.5777
H    5.3184    2.2922    0.1649
H    4.2818    3.0918    1.3709
H    4.8516    1.4287    1.6497
H    2.1861    3.3562    0.6163
H    2.5894    3.1237   -1.0949
H    5.0310   -2.3277    0.9828
H   -4.2941   -2.4046    1.9418
H   -4.0884   -2.7380    0.3255
H   -3.0919    0.9865    2.2269
H   -5.4712    2.1221    1.7066
H   -4.0289    3.0436    1.2337
H   -5.3993    3.0351   -0.8200
H   -5.3966    1.1011   -2.1223
H   -4.0217   -0.7987   -1.3615
H   -5.4613   -0.8963   -0.3266


