%nprocshared=4
%mem=100MW
%chk=REIUXOLGHVXAEO-UHFFFAOYSA-N.chk
#b3lyp/6-31+G(d) opt freq

gas opt

0 1
O    9.2149   -0.3189   -0.0000
C    8.0419    0.4972    0.0000
C    6.7994   -0.3956   -0.0000
C    5.5435    0.4783    0.0000
C    4.3010   -0.4145   -0.0000
C    3.0451    0.4593    0.0000
C    1.8026   -0.4335   -0.0000
C    0.5467    0.4404    0.0000
C   -0.6958   -0.4525    0.0000
C   -1.9517    0.4214   -0.0000
C   -3.1942   -0.4714    0.0000
C   -4.4501    0.4024   -0.0000
C   -5.6926   -0.4904    0.0000
C   -6.9485    0.3835   -0.0000
C   -8.1910   -0.5093    0.0000
C   -9.4469    0.3645   -0.0000
H   10.0423    0.1816    0.0000
H    8.0372    1.1265    0.8900
H    8.0372    1.1265   -0.8900
H    6.8042   -1.0249   -0.8900
H    6.8042   -1.0249    0.8900
H    5.5388    1.1076    0.8900
H    5.5388    1.1076   -0.8900
H    4.3058   -1.0438   -0.8900
H    4.3058   -1.0438    0.8900
H    3.0404    1.0886    0.8900
H    3.0404    1.0886   -0.8900
H    1.8074   -1.0628   -0.8900
H    1.8074   -1.0628    0.8900
H    0.5419    1.0696    0.8900
H    0.5419    1.0696   -0.8900
H   -0.6910   -1.0817   -0.8900
H   -0.6910   -1.0817    0.8900
H   -1.9565    1.0507    0.8900
H   -1.9565    1.0507   -0.8900
H   -3.1894   -1.1007   -0.8900
H   -3.1894   -1.1007    0.8900
H   -4.4549    1.0317    0.8900
H   -4.4549    1.0317   -0.8900
H   -5.6878   -1.1197   -0.8900
H   -5.6878   -1.1197    0.8900
H   -6.9533    1.0128    0.8900
H   -6.9533    1.0128   -0.8900
H   -8.1862   -1.1386   -0.8900
H   -8.1862   -1.1386    0.8900
H   -9.4517    0.9938    0.8900
H   -9.4517    0.9938   -0.8900
H  -10.3321   -0.2715    0.0000


