%nprocshared=4
%mem=100MW
%chk=REKQLYUAUXYJSZ-UHFFFAOYSA-N.chk
#b3lyp/6-31+G(d) opt freq

gas opt

0 1
O    2.7086   -1.3009   -0.0085
C    2.1017   -0.2474   -0.0081
N    2.7767    0.9192   -0.0161
N    4.1427    0.9178   -0.0247
C    0.6257   -0.2460   -0.0050
C   -0.0760   -1.4544   -0.0025
C   -1.4530   -1.4488    0.0010
C   -2.1449   -0.2433    0.0015
O   -3.5020   -0.2420    0.0044
C   -4.1496    1.0319    0.0047
C   -1.4507    0.9608   -0.0006
C   -0.0736    0.9638    0.0014
H    2.2925    1.7597   -0.0158
H    4.5052    1.8594   -0.0300
H    4.5087    0.3939    0.7561
H    0.4610   -2.3914   -0.0036
H   -1.9960   -2.3823    0.0029
H   -3.8543    1.5893    0.8936
H   -3.8581    1.5878   -0.8864
H   -5.2303    0.8901    0.0071
H   -1.9919    1.8954   -0.0002
H    0.4651    1.8998   -0.0002


