%nprocshared=4
%mem=100MW
%chk=RFMMMVDNIPUKGG-UHFFFAOYSA-N.chk
#b3lyp/6-31+G(d) opt freq

gas opt

0 1
O   -2.2943    1.5468   -0.8242
C   -1.3733    1.6372   -0.0473
O   -1.0792    2.8225    0.5097
C   -0.5588    0.4181    0.3009
N   -1.0795   -0.7415   -0.4274
C   -2.1117   -1.4462    0.0770
O   -2.6095   -1.1203    1.1339
C   -2.6474   -2.6390   -0.6722
C    0.9019    0.6519   -0.0899
C    1.7504   -0.5330    0.3758
C    3.1891   -0.3027   -0.0091
O    3.5035    0.7058   -0.5957
O    4.1212   -1.2178    0.2998
H   -1.6323    3.5749    0.2587
H   -0.6228    0.2324    1.3731
H   -0.6814   -1.0021   -1.2727
H   -2.1165   -3.5363   -0.3540
H   -3.7109   -2.7523   -0.4622
H   -2.5021   -2.4911   -1.7423
H    0.9771    0.7493   -1.1729
H    1.2627    1.5653    0.3830
H    1.6751   -0.6303    1.4589
H    1.3895   -1.4464   -0.0970
H    5.0305   -1.0259    0.0322


