%nprocshared=4
%mem=100MW
%chk=RGCVKNLCSQQDEP-UHFFFAOYSA-N.chk
#b3lyp/6-31+G(d) opt freq

gas opt

0 1
Cl   -2.3620   -4.4262   -0.4319
C   -2.9926   -2.8097   -0.3780
C   -2.2041   -1.7767    0.0955
C   -2.7000   -0.4782    0.1416
N   -1.8791    0.5355    0.6296
C   -0.7966    0.1574    1.5415
C    0.4661   -0.1503    0.7343
C    1.5966   -0.5453    1.6866
N    2.8090   -0.8407    0.9116
C    3.9743   -0.9921    1.7941
C    5.1974   -1.3766    0.9582
N    5.4395   -0.3410   -0.0560
C    6.6519   -0.6365   -0.8311
C    7.0105    0.5724   -1.6977
O    7.3582    1.6746   -0.8573
C    4.2742   -0.1896   -0.9385
C    3.0511    0.1949   -0.1026
C   -2.0164    1.8842    0.3097
C   -3.2310    2.4208   -0.1074
S   -4.6599    1.4034   -0.2558
C   -3.9976   -0.2275   -0.2948
C   -4.7838   -1.2693   -0.7677
C   -4.2802   -2.5566   -0.8138
C   -3.3234    3.7721   -0.4122
C   -2.2119    4.5879   -0.3044
C   -1.0045    4.0575    0.1075
C   -0.9046    2.7132    0.4134
H   -1.1979   -1.9796    0.4315
H   -0.5971    0.9792    2.2291
H   -1.0905   -0.7266    2.1074
H    0.2666   -0.9722    0.0467
H    0.7600    0.7337    0.1683
H    1.7962    0.2766    2.3742
H    1.3027   -1.4293    2.2526
H    4.1664   -0.0501    2.3077
H    3.7755   -1.7730    2.5282
H    6.0693   -1.4612    1.6069
H    5.0158   -2.3321    0.4661
H    7.4751   -0.8521   -0.1499
H    6.4730   -1.5013   -1.4700
H    7.8566    0.3224   -2.3378
H    6.1545    0.8429   -2.3160
H    7.5975    2.4774   -1.3403
H    4.4730    0.5912   -1.6726
H    4.0821   -1.1316   -1.4521
H    2.1793    0.2794   -0.7513
H    3.2327    1.1504    0.3894
H   -5.7910   -1.0731   -1.1046
H   -4.8947   -3.3646   -1.1824
H   -4.2666    4.1876   -0.7350
H   -2.2876    5.6386   -0.5422
H   -0.1364    4.6946    0.1900
H    0.0420    2.3045    0.7347


