%nprocshared=4
%mem=100MW
%chk=RGXWDWUGBIJHDO-UHFFFAOYSA-N.chk
#b3lyp/6-31+G(d) opt freq

gas opt

0 1
O    3.4007   -1.3288    0.0029
C    3.4613   -0.1221    0.0050
O    4.6560    0.4899    0.0013
C    5.8325   -0.3610   -0.0051
C    7.0911    0.5089   -0.0085
C    2.1957    0.6960    0.0054
C    0.9843   -0.2386    0.0029
C   -0.3006    0.5919    0.0033
C   -1.5120   -0.3427    0.0009
C   -2.7969    0.4878    0.0013
C   -4.0083   -0.4468   -0.0012
C   -5.2933    0.3838   -0.0008
C   -6.5046   -0.5508   -0.0033
C   -7.7896    0.2797   -0.0029
H    5.8293   -0.9920    0.8838
H    5.8221   -0.9886   -0.8962
H    7.9743   -0.1299   -0.0133
H    7.0942    1.1399   -0.8973
H    7.1014    1.1365    0.8826
H    2.1688    1.3233    0.8964
H    2.1701    1.3262   -0.8836
H    1.0112   -0.8659   -0.8881
H    1.0099   -0.8688    0.8919
H   -0.3275    1.2192    0.8943
H   -0.3262    1.2222   -0.8857
H   -1.4851   -0.9700   -0.8901
H   -1.4865   -0.9729    0.8898
H   -2.8238    1.1151    0.8922
H   -2.8225    1.1181   -0.8877
H   -3.9814   -1.0741   -0.8922
H   -3.9828   -1.0770    0.8878
H   -5.3201    1.0111    0.8902
H   -5.3188    1.0140   -0.8898
H   -6.4777   -1.1781   -0.8943
H   -6.4791   -1.1811    0.8857
H   -7.8165    0.9070    0.8881
H   -7.8151    0.9099   -0.8918
H   -8.6526   -0.3861   -0.0046


