%nprocshared=4
%mem=100MW
%chk=RIGBPMDIGYBTBJ-UHFFFAOYSA-N.chk
#b3lyp/6-31+G(d) opt freq

gas opt

0 1
S    1.6701   -1.8535   -0.1010
O    2.4628   -2.6729    0.7473
O    1.4530   -2.1392   -1.4759
N    0.1726   -1.7651    0.6004
C   -0.7961   -1.0220    0.0295
O   -0.5705   -0.4166   -1.0005
N   -2.0149   -0.9500    0.6004
C   -3.0679   -0.1424   -0.0202
C   -4.4374   -0.6807    0.3990
C   -5.5371    0.1629   -0.2491
C   -5.3995    1.6171    0.2061
C   -4.0300    2.1553   -0.2130
C   -2.9303    1.3118    0.4351
C    2.3739   -0.2396   -0.0333
C    3.1337    0.1379    1.0582
C    3.6858    1.4040    1.1113
C    3.4786    2.2926    0.0728
C    4.0801    3.6731    0.1310
C    2.7199    1.9146   -1.0192
C    2.1710    0.6471   -1.0741
H   -0.0074   -2.2480    1.4222
H   -2.1949   -1.4330    1.4221
H   -2.9737   -0.1940   -1.1049
H   -4.5353   -1.7167    0.0746
H   -4.5315   -0.6291    1.4837
H   -5.4429    0.1113   -1.3338
H   -6.5127   -0.2206    0.0495
H   -6.1830    2.2180   -0.2556
H   -5.4937    1.6686    1.2908
H   -3.9358    2.1038   -1.2977
H   -3.9320    3.1913    0.1113
H   -3.0245    1.3634    1.5198
H   -1.9547    1.6953    0.1365
H    3.2956   -0.5563    1.8695
H    4.2788    1.6992    1.9643
H    5.0712    3.6570   -0.3224
H    3.4429    4.3703   -0.4131
H    4.1612    3.9906    1.1706
H    2.5583    2.6087   -1.8307
H    1.5783    0.3519   -1.9273


