%nprocshared=4
%mem=100MW
%chk=RIZMRRKBZQXFOY-UHFFFAOYSA-N.chk
#b3lyp/6-31+G(d) opt freq

gas opt

0 1
S   -1.9598   -0.0351    1.7718
P   -2.5217    0.2172    0.0131
S   -0.8322    0.2856   -1.2657
C    0.2093    1.5572   -0.4981
S    1.0221    0.8680    0.9699
P    2.5599   -0.3345    0.1431
S    3.6269   -1.0079    1.5146
O    1.9044   -1.5559   -0.6758
C    0.9924   -2.4862   -0.0886
C    0.6318   -3.5632   -1.1137
O    3.4614    0.5554   -0.8505
C    4.4145    1.5145   -0.3880
C    5.0929    2.1788   -1.5877
O   -3.4773   -1.0022   -0.4251
C   -3.1705   -2.3700   -0.1477
C   -4.2830   -3.2642   -0.6987
O   -3.3346    1.6025   -0.0971
C   -2.6992    2.8821   -0.0694
C   -3.7644    3.9802   -0.0480
H    0.9652    1.8867   -1.2110
H   -0.4093    2.4059   -0.2062
H    1.4579   -2.9524    0.7798
H    0.0883   -1.9622    0.2214
H   -0.0639   -4.2727   -0.6657
H    0.1663   -3.0969   -1.9820
H    1.5359   -4.0871   -1.4236
H    3.9068    2.2728    0.2082
H    5.1657    1.0144    0.2233
H    5.6005    1.4205   -2.1839
H    4.3417    2.6788   -2.1990
H    5.8199    2.9103   -1.2349
H   -2.2247   -2.6334   -0.6211
H   -3.0897   -2.5129    0.9299
H   -5.2289   -3.0007   -0.2253
H   -4.3639   -3.1213   -1.7762
H   -4.0490   -4.3075   -0.4870
H   -2.0788    2.9604    0.8234
H   -2.0760    2.9977   -0.9562
H   -4.3849    3.9019   -0.9408
H   -4.3876    3.8646    0.8388
H   -3.2797    4.9562   -0.0268


