%nprocshared=4
%mem=100MW
%chk=RJKGJBPXVHTNJL-UHFFFAOYSA-N.chk
#b3lyp/6-31+G(d) opt freq

gas opt

0 1
O   -3.1482    0.2591    0.6046
N   -2.1439    0.5583   -0.0163
O   -2.0934    1.6148   -0.6202
C   -0.9826   -0.3595   -0.0318
C    0.3247    0.1548    0.0110
C    1.4239   -0.7397   -0.0047
C    1.1855   -2.1234   -0.0633
C   -0.0941   -2.5851   -0.1041
C   -1.1753   -1.7057   -0.0821
C    2.7312   -0.2256    0.0381
C    2.9239    1.1204    0.0939
C    1.8429    2.0001    0.1099
C    0.5633    1.5385    0.0688
H    2.0134   -2.8168   -0.0763
H   -0.2746   -3.6489   -0.1495
H   -2.1809   -2.0982   -0.1154
H    3.5784   -0.8953    0.0270
H    3.9295    1.5129    0.1267
H    2.0234    3.0639    0.1553
H   -0.2646    2.2320    0.0815


