%nprocshared=4
%mem=100MW
%chk=RJMUSRYZPJIFPJ-UHFFFAOYSA-N.chk
#b3lyp/6-31+G(d) opt freq

gas opt

0 1
Cl   -1.3855   -2.6543    0.6905
C   -2.0992   -1.1407    0.2284
C   -1.2885   -0.0573   -0.0900
N    0.1038   -0.1844   -0.0387
C    0.8734    0.9054    0.1523
O    0.3567    1.9823    0.3801
C    2.3426    0.7918    0.0848
C    3.1468    1.9227    0.2828
O    2.5772    3.1274    0.5379
C    4.5267    1.8051    0.2173
C    5.1057    0.5784   -0.0420
C    4.3146   -0.5426   -0.2384
Cl    5.0567   -2.0781   -0.5629
C    2.9405   -0.4445   -0.1710
C   -1.8636    1.1510   -0.4595
C   -3.2388    1.2733   -0.5098
C   -4.0428    0.1943   -0.1922
N   -5.5158    0.3297   -0.2468
O   -6.0183    1.3907   -0.5712
O   -6.2255   -0.6200    0.0327
C   -3.4739   -1.0129    0.1709
H    0.5152   -1.0570   -0.1404
H    2.4389    3.3059    1.4782
H    5.1498    2.6741    0.3688
H    6.1811    0.4922   -0.0924
H    2.3275   -1.3203   -0.3242
H   -1.2366    1.9947   -0.7072
H   -3.6865    2.2132   -0.7972
H   -4.1047   -1.8539    0.4181


