%nprocshared=4
%mem=100MW
%chk=RJTJVVYSTUQWNI-UHFFFAOYSA-N.chk
#b3lyp/6-31+G(d) opt freq

gas opt

0 1
C   -3.1480   -0.3465   -0.4869
C   -3.7845   -0.5778    0.8851
C   -1.7016    0.0382   -0.3112
C   -0.7483   -0.9331   -0.2819
C    0.6013   -0.5779   -0.1187
C    0.9487    0.7900    0.0132
C   -0.0631    1.7641   -0.0214
C   -1.3595    1.3831   -0.1869
C    2.2987    1.1452    0.1769
C    3.2516    0.1741    0.2067
C    2.9100   -1.1709    0.0766
C    1.6134   -1.5524   -0.0831
H   -3.2116   -1.2615   -1.0758
H   -3.6771    0.4549   -1.0024
H   -3.7208    0.3371    1.4740
H   -4.8307   -0.8561    0.7580
H   -3.2554   -1.3793    1.4006
H   -1.0279   -1.9714   -0.3832
H    0.1868    2.8101    0.0781
H   -2.1353    2.1340   -0.2135
H    2.5784    2.1834    0.2782
H    4.2882    0.4498    0.3326
H    3.6859   -1.9217    0.1029
H    1.3636   -2.5984   -0.1823


