%nprocshared=4
%mem=100MW
%chk=RJUFJBKOKNCXHH-UHFFFAOYSA-N.chk
#b3lyp/6-31+G(d) opt freq

gas opt

0 1
O    0.0003   -1.1687    0.0019
C    0.0124    0.0395    0.0031
O    1.1815    0.6990    0.0009
C    2.3913   -0.1039   -0.0029
C   -1.2851    0.8060    0.0008
C   -2.4579   -0.1766   -0.0029
H    2.4077   -0.7320   -0.8936
H    3.2623    0.5514   -0.0044
H    2.4121   -0.7338    0.8864
H   -1.3387    1.4323    0.8913
H   -1.3345    1.4341   -0.8887
H   -3.3964    0.3778   -0.0046
H   -2.4043   -0.8029   -0.8934
H   -2.4085   -0.8047    0.8866


