%nprocshared=4
%mem=100MW
%chk=RKUNBYITZUJHSG-LGGPCSOHSA-N.chk
#b3lyp/6-31+G(d) opt freq

gas opt

0 1
O   -0.8102   -0.8901   -0.0860
C   -0.8088    0.3001   -0.2942
O    0.3535    0.9519   -0.4548
C    1.5694    0.1633   -0.3656
C    2.6493    0.7901   -1.2521
C    3.9708    0.0355   -1.0353
N    4.3755    0.2527    0.3791
C    5.7558   -0.1955    0.6065
C    3.4115   -0.5800    1.1465
C    2.0493    0.1298    1.0883
C    3.2998   -1.8855    0.3258
C    3.6694   -1.4788   -1.1159
C   -2.1122    1.0516   -0.3798
H   -2.2001    1.5160   -1.3620
C   -2.1490    2.1337    0.7012
O   -1.1345    3.1050    0.4374
C   -3.2581    0.0951   -0.1722
C   -4.2078   -0.0712   -1.1628
C   -5.2589   -0.9486   -0.9723
C   -5.3601   -1.6600    0.2086
C   -4.4100   -1.4943    1.1989
C   -3.3564   -0.6202    1.0067
H    1.3678   -0.8532   -0.7035
H    2.3526    0.7137   -2.2982
H    2.7792    1.8384   -0.9833
H    4.7427    0.3492   -1.7381
H    6.4310    0.3648   -0.0402
H    6.0261   -0.0252    1.6486
H    5.8346   -1.2588    0.3798
H    3.7406   -0.7535    2.1710
H    2.1522    1.1484    1.4623
H    1.3280   -0.4139    1.6984
H    4.0011   -2.6307    0.7012
H    2.2807   -2.2703    0.3619
H    2.8319   -1.6636   -1.7887
H    4.5523   -2.0241   -1.4494
H   -3.1255    2.6180    0.6974
H   -1.9724    1.6795    1.6761
H   -1.0995    3.8228    1.0845
H   -4.1287    0.4845   -2.0854
H   -6.0013   -1.0780   -1.7460
H   -6.1818   -2.3449    0.3577
H   -4.4892   -2.0499    2.1217
H   -2.6141   -0.4908    1.7803


