%nprocshared=4
%mem=100MW
%chk=RLFWWDJHLFCNIJ-UHFFFAOYSA-N.chk
#b3lyp/6-31+G(d) opt freq

gas opt

0 1
O   -0.5384   -2.2665   -0.3263
C   -0.9210   -1.1223   -0.1603
N   -0.1370   -0.0364   -0.0037
N   -0.9737    1.0757    0.1580
C   -0.5356    2.4593    0.3576
C   -2.2766    0.6434    0.0965
C   -3.5015    1.5120    0.2233
C   -2.2715   -0.6916   -0.1031
N   -3.4102   -1.5160   -0.2240
C    1.2613   -0.0228   -0.0029
C    1.9659   -0.9461    0.7587
C    3.3469   -0.9302    0.7569
C    4.0281    0.0040   -0.0018
C    3.3296    0.9246   -0.7612
C    1.9486    0.9105   -0.7683
H   -0.4452    2.9548   -0.6091
H   -1.2669    2.9873    0.9695
H    0.4313    2.4653    0.8608
H   -3.7976    1.8687   -0.7631
H   -4.3148    0.9318    0.6592
H   -3.2779    2.3638    0.8657
H   -4.2976   -1.1290   -0.1644
H   -3.3056   -2.4697   -0.3668
H    1.4345   -1.6754    1.3520
H    3.8954   -1.6478    1.3490
H    5.1081    0.0147   -0.0009
H    3.8646    1.6531   -1.3524
H    1.4037    1.6298   -1.3617


