%nprocshared=4
%mem=100MW
%chk=RLLPVAHGXHCWKJ-UHFFFAOYSA-N.chk
#b3lyp/6-31+G(d) opt freq

gas opt

0 1
Cl   -5.9975   -0.0833   -1.3354
C   -4.9769   -0.6648   -0.0572
C   -3.7981   -0.1208    0.1409
C   -3.3314    1.0083   -0.7414
C   -3.0132    2.3452   -0.0689
C   -3.3361    3.6221   -0.8475
C   -3.1937    2.4336    1.4478
C   -1.8784    1.4645   -0.5956
C   -1.0233    0.7505    0.4193
O   -1.2465    0.8851    1.5991
O   -0.0138   -0.0352    0.0126
C    0.7678   -0.6916    1.0453
C    1.8478   -1.5247    0.4046
C    3.0856   -0.9687    0.1447
C    4.0796   -1.7364   -0.4448
O    5.2980   -1.1920   -0.7010
C    5.5031    0.1053   -0.3528
C    5.9924    0.4177    0.9075
C    6.1999    1.7374    1.2589
C    5.9205    2.7467    0.3560
C    5.4324    2.4382   -0.9003
C    5.2289    1.1198   -1.2590
C    3.8275   -3.0613   -0.7718
C    2.5884   -3.6123   -0.5099
C    1.6010   -2.8464    0.0826
Cl   -5.5174   -1.9607    0.9637
H   -3.1632   -0.4826    0.9361
H   -3.7711    1.0384   -1.7384
H   -4.1590    4.1459   -0.3612
H   -2.4573    4.2666   -0.8688
H   -3.6219    3.3636   -1.8670
H   -3.3913    1.4395    1.8488
H   -2.2856    2.8334    1.8991
H   -4.0326    3.0909    1.6762
H   -1.3617    1.7949   -1.4968
H    1.2232    0.0604    1.6896
H    0.1180   -1.3340    1.6397
H    3.2791    0.0627    0.3999
H    6.2104   -0.3702    1.6132
H    6.5804    1.9811    2.2398
H    6.0835    3.7778    0.6328
H    5.2143    3.2284   -1.6034
H    4.8480    0.8793   -2.2406
H    4.5995   -3.6609   -1.2311
H    2.3917   -4.6433   -0.7643
H    0.6329   -3.2792    0.2869


