%nprocshared=4
%mem=100MW
%chk=RLPGDEORIPLBNF-UHFFFAOYSA-N.chk
#b3lyp/6-31+G(d) opt freq

gas opt

0 1
C   -0.0201   -0.3933   -0.4091
C   -1.2673    0.2104    0.2396
C   -1.5612    1.5732   -0.3908
C   -2.4598   -0.7220    0.0176
C    1.1753    0.5327   -0.1755
C    1.4406    0.6541    1.3264
C    2.4115   -0.0461   -0.8666
C    0.2660   -1.7620    0.2120
H   -0.1870   -0.5080   -1.4801
H   -1.0969    0.3340    1.3091
H   -1.6292    1.4657   -1.4733
H   -2.5053    1.9566   -0.0037
H   -0.7584    2.2682   -0.1444
H   -2.6302   -0.8456   -1.0519
H   -2.2505   -1.6929    0.4667
H   -3.3484   -0.2919    0.4797
H    0.9572    1.5183   -0.5867
H    1.6587   -0.3315    1.7377
H    2.2921    1.3138    1.4928
H    0.5598    1.0664    1.8188
H    2.1889   -0.2262   -1.9183
H    3.2373    0.6607   -0.7858
H    2.6890   -0.9853   -0.3880
H   -0.5855   -2.4217    0.0456
H    1.1546   -2.1921   -0.2501
H    0.4329   -1.6473    1.2830


