%nprocshared=4
%mem=100MW
%chk=RLSSMJSEOOYNOY-UHFFFAOYSA-N.chk
#b3lyp/6-31+G(d) opt freq

gas opt

0 1
O    2.3486    0.9893   -0.0360
C    1.1770    0.3009   -0.0201
C   -0.0306    0.9842   -0.0159
C   -1.2200    0.2821    0.0003
C   -2.5319    1.0237    0.0049
C   -1.2080   -1.1006    0.0119
C   -0.0061   -1.7838    0.0082
C    1.1863   -1.0862   -0.0138
H    2.6951    1.1963    0.8428
H   -0.0405    2.0641   -0.0249
H   -2.8569    1.1935   -1.0215
H   -3.2818    0.4322    0.5303
H   -2.4060    1.9817    0.5094
H   -2.1390   -1.6478    0.0242
H    0.0006   -2.8637    0.0176
H    2.1250   -1.6204   -0.0167


