%nprocshared=4
%mem=100MW
%chk=RMBFBMJGBANMMK-UHFFFAOYSA-N.chk
#b3lyp/6-31+G(d) opt freq

gas opt

0 1
O    3.1777   -0.6558   -0.6244
N    2.1756   -0.9967   -0.0220
O    2.1500   -2.0654    0.5619
C    0.9910   -0.1096    0.0058
C    1.1556    1.2616    0.0705
C    2.5410    1.8530    0.1127
C    0.0495    2.0899    0.0960
C   -1.2216    1.5473    0.0573
C   -1.3861    0.1765   -0.0074
N   -2.7469   -0.4044   -0.0483
O   -3.7216    0.3255   -0.0249
O   -2.8919   -1.6124   -0.1052
C   -0.2796   -0.6518   -0.0386
H    2.9264    1.9486   -0.9024
H    2.5020    2.8367    0.5806
H    3.1968    1.2016    0.6904
H    0.1780    3.1610    0.1466
H   -2.0859    2.1945    0.0780
H   -0.4081   -1.7230   -0.0892


