%nprocshared=4
%mem=100MW
%chk=RMOUBSOVHSONPZ-UHFFFAOYSA-N.chk
#b3lyp/6-31+G(d) opt freq

gas opt

0 1
O   -2.5273   -0.0983    0.1490
C   -1.4398    0.1199   -0.3301
O   -0.3318   -0.2975    0.3022
C    0.9404   -0.0004   -0.3314
C    1.4509    1.3554    0.1605
C    1.9550   -1.0880    0.0271
H   -1.3594    0.6469   -1.2694
H    0.8089    0.0315   -1.4130
H    0.7281    2.1303   -0.0949
H    1.5824    1.3235    1.2420
H    2.4059    1.5784   -0.3152
H    1.5913   -2.0540   -0.3234
H    2.9100   -0.8650   -0.4486
H    2.0865   -1.1200    1.1086


