%nprocshared=4
%mem=100MW
%chk=RNVCVTLRINQCPJ-UHFFFAOYSA-N.chk
#b3lyp/6-31+G(d) opt freq

gas opt

0 1
N    1.6898   -1.4260    0.0010
C    0.4963   -0.7005    0.0011
C    0.5258    0.6885    0.0002
C    1.8461    1.4149   -0.0007
C   -0.6560    1.4026   -0.0002
C   -1.8682    0.7366    0.0007
C   -1.9012   -0.6456    0.0015
C   -0.7228   -1.3661   -0.0038
H    2.5406   -0.9601    0.0004
H    1.6680   -2.3958    0.0057
H    2.1641    1.5894   -1.0286
H    1.7357    2.3701    0.5125
H    2.5937    0.8106    0.5132
H   -0.6338    2.4824   -0.0009
H   -2.7911    1.2976    0.0010
H   -2.8495   -1.1625    0.0022
H   -0.7492   -2.4458   -0.0035


