%nprocshared=4
%mem=100MW
%chk=RNWGZXAHUPFXLL-UHFFFAOYSA-N.chk
#b3lyp/6-31+G(d) opt freq

gas opt

0 1
O    3.0023   -1.5558    0.0010
N    2.7932   -0.3559    0.0008
O    3.7278    0.4251   -0.0042
C    1.4033    0.1531    0.0004
C    0.3470   -0.7348    0.0003
C   -0.9633   -0.2537   -0.0001
C   -2.2735   -0.9297   -0.0003
O   -2.4342   -2.1337    0.0003
O   -3.2640   -0.0220   -0.0007
C   -2.6846    1.3115   -0.0008
C   -1.1881    1.1260   -0.0004
C   -0.1280    2.0017   -0.0010
C    1.1696    1.5167    0.0057
H    0.5335   -1.7985    0.0002
H   -2.9940    1.8536   -0.8944
H   -2.9945    1.8539    0.8924
H   -0.3069    3.0667   -0.0013
H    2.0016    2.2054    0.0053


