%nprocshared=4
%mem=100MW
%chk=RPUMZMSNLZHIGZ-UHFFFAOYSA-N.chk
#b3lyp/6-31+G(d) opt freq

gas opt

0 1
Cl   -3.9892   -0.9432    1.2726
C   -2.8852    0.0100    0.3312
C   -1.5279   -0.2455    0.3910
Cl   -0.9262   -1.5189    1.4061
C   -0.6433    0.5214   -0.3661
C    0.8144    0.2519   -0.3066
C    1.3216   -0.9599   -0.7756
Cl    0.2480   -2.1564   -1.4311
C    2.6793   -1.2061   -0.7180
C    3.5363   -0.2527   -0.1960
Cl    5.2420   -0.5682   -0.1263
C    3.0375    0.9525    0.2707
Cl    4.1189    2.1434    0.9235
C    1.6818    1.2104    0.2126
C   -1.1329    1.5418   -1.1793
C   -2.4894    1.7890   -1.2321
C   -3.3656    1.0218   -0.4834
Cl   -5.0710    1.3387   -0.5548
H    3.0729   -2.1442   -1.0805
H    1.2938    2.1503    0.5767
H   -0.4514    2.1387   -1.7672
H   -2.8689    2.5798   -1.8622


