%nprocshared=4
%mem=100MW
%chk=RQVYBGPQFYCBGX-UHFFFAOYSA-N.chk
#b3lyp/6-31+G(d) opt freq

gas opt

0 1
S   -0.4570   -2.8752   -0.0923
C   -2.2632   -2.9827   -0.0460
C   -0.2539   -1.1251   -0.0668
N    0.9666   -0.5966   -0.0900
C    1.1194    0.7234   -0.0712
N    2.3857    1.2719   -0.0953
C    3.5613    0.3989   -0.1416
C    4.7337    1.1551   -0.7695
C    3.9336   -0.0308    1.2788
N    0.0525    1.5159   -0.0297
C   -1.1674    0.9880   -0.0065
N   -2.2746    1.8108    0.0367
C   -3.6190    1.2292    0.0623
C   -4.6590    2.3504    0.1087
N   -1.3210   -0.3322   -0.0299
H   -2.6323   -2.5072    0.8627
H   -2.6798   -2.4757   -0.9163
H   -2.5652   -4.0300   -0.0564
H    2.4973    2.2353   -0.0816
H    3.3353   -0.4833   -0.7406
H    4.9596    2.0373   -0.1705
H    5.6084    0.5056   -0.8040
H    4.4684    1.4612   -1.7815
H    4.1596    0.8514    1.8778
H    3.0984   -0.5696    1.7262
H    4.8083   -0.6804    1.2444
H   -2.1627    2.7743    0.0500
H   -3.7721    0.6285   -0.8343
H   -3.7252    0.5983    0.9448
H   -4.5058    2.9511    1.0052
H   -4.5528    2.9812   -0.7738
H   -5.6592    1.9176    0.1277


