%nprocshared=4
%mem=100MW
%chk=RRNIZKPFKNDSRS-UHFFFAOYSA-N.chk
#b3lyp/6-31+G(d) opt freq

gas opt

0 1
S   -3.0860    1.2665   -0.2534
O   -4.0494    2.2369    0.1330
O   -2.4108    1.2965   -1.5034
N   -1.9109    1.2839    0.9133
C   -0.7903    0.3431    0.8384
C    0.3445    0.8287    1.7425
S    1.6733   -0.4060    1.7608
P    2.6479   -0.0855   -0.0944
S    1.4128   -0.2456   -1.4807
O    3.2897    1.3909   -0.1154
C    2.5096    2.5764   -0.2826
C    2.6860    3.4797    0.9397
C    2.9734    3.3195   -1.5371
O    3.8131   -1.1800   -0.2847
C    3.6312   -2.5682    0.0012
C    3.9925   -3.3950   -1.2344
C    4.5358   -2.9717    1.1672
C   -3.8906   -0.2982   -0.1600
C   -5.0472   -0.4373    0.5842
C   -5.6785   -1.6649    0.6575
C   -5.1534   -2.7533   -0.0137
C   -3.9973   -2.6140   -0.7586
C   -3.3684   -1.3854   -0.8354
H   -1.9645    1.9169    1.6463
H   -1.1206   -0.6422    1.1672
H   -0.4348    0.2827   -0.1902
H    0.7322    1.7741    1.3630
H   -0.0332    0.9710    2.7550
H    1.4584    2.3079   -0.3872
H    2.3555    2.9503    1.8333
H    3.7372    3.7482    1.0443
H    2.0909    4.3839    0.8121
H    2.8478    2.6760   -2.4078
H    2.3784    4.2238   -1.6646
H    4.0246    3.5880   -1.4324
H    2.5904   -2.7507    0.2688
H    5.0548   -3.2807   -1.4502
H    3.7710   -4.4456   -1.0462
H    3.4092   -3.0479   -2.0873
H    4.2215   -2.4469    2.0694
H    4.4628   -4.0472    1.3285
H    5.5676   -2.7084    0.9346
H   -5.4575    0.4130    1.1086
H   -6.5817   -1.7738    1.2395
H   -5.6462   -3.7126    0.0442
H   -3.5868   -3.4645   -1.2827
H   -2.4652   -1.2766   -1.4174


