%nprocshared=4
%mem=100MW
%chk=RSDMFNVRFBIYRK-UHFFFAOYSA-N.chk
#b3lyp/6-31+G(d) opt freq

gas opt

0 1
O   -1.9153   -1.6802    0.0673
C   -2.2461   -0.5136    0.0883
C   -1.1962    0.5675    0.0787
O    0.1226   -0.0389    0.0432
C    1.1796    0.7962    0.0304
O    1.0043    1.9981    0.0485
C    2.5518    0.2504   -0.0055
C    3.6496    1.1131   -0.0188
C    4.9283    0.5967   -0.0519
C    5.1244   -0.7729   -0.0724
C    4.0410   -1.6335   -0.0599
C    2.7571   -1.1307   -0.0205
N   -3.5526   -0.1839    0.1147
C   -4.8290   -0.9143    0.1265
C   -5.4720    0.3070   -0.5451
C   -4.3292    1.0645    0.1509
H   -1.3306    1.1967   -0.8012
H   -1.2925    1.1755    0.9782
H    3.4980    2.1823   -0.0035
H    5.7783    1.2628   -0.0622
H    6.1276   -1.1720   -0.0987
H    4.2010   -2.7015   -0.0768
H    1.9123   -1.8035   -0.0108
H   -4.8257   -1.8042   -0.5029
H   -5.2089   -1.1082    1.1296
H   -5.4115    0.3021   -1.6335
H   -6.4642    0.5540   -0.1676
H   -4.5786    1.3955    1.1590
H   -3.8995    1.8585   -0.4599


