%nprocshared=4
%mem=100MW
%chk=RTHCYVBBDHJXIQ-UHFFFAOYSA-N.chk
#b3lyp/6-31+G(d) opt freq

gas opt

0 1
F   -4.9175    0.9178   -0.3305
C   -4.4076   -0.2652    0.2152
F   -4.6276   -0.2742    1.5968
F   -5.0514   -1.3626   -0.3666
C   -2.9280   -0.3477   -0.0584
C   -2.0281    0.1853    0.8459
C   -0.6713    0.1113    0.5972
C   -0.2118   -0.4988   -0.5610
O    1.1225   -0.5733   -0.8077
C    1.9994   -0.1099    0.2211
C    3.3609   -0.7928    0.0766
C    3.2067   -2.2950    0.3224
N    4.5139   -2.9506    0.1836
C    4.4043   -4.3974    0.4134
C    2.1706    1.3825    0.1008
C    2.3099    2.1561    1.2379
C    2.4669    3.5251    1.1275
C    2.4851    4.1203   -0.1200
C    2.3468    3.3466   -1.2571
C    2.1941    1.9771   -1.1469
C   -1.1168   -1.0333   -1.4666
C   -2.4724   -0.9613   -1.2107
H   -2.3863    0.6601    1.7474
H    0.0312    0.5284    1.3035
H    1.5744   -0.3495    1.1958
H    3.7456   -0.6269   -0.9297
H    4.0560   -0.3749    0.8048
H    2.8220   -2.4609    1.3286
H    2.5115   -2.7128   -0.4058
H    4.9212   -2.7577   -0.7191
H    5.3861   -4.8580    0.3046
H    4.0279   -4.5779    1.4203
H    3.7174   -4.8298   -0.3142
H    2.2956    1.6910    2.2125
H    2.5750    4.1296    2.0159
H    2.6071    5.1900   -0.2062
H    2.3607    3.8117   -2.2317
H    2.0860    1.3726   -2.0353
H   -0.7616   -1.5084   -2.3691
H   -3.1773   -1.3775   -1.9152


