%nprocshared=4
%mem=100MW
%chk=RTZKZFJDLAIYFH-UHFFFAOYSA-N.chk
#b3lyp/6-31+G(d) opt freq

gas opt

0 1
O    0.0000   -0.2483   -0.0000
C   -1.1985    0.5299   -0.0000
C   -2.4118   -0.4021    0.0000
C    1.1985    0.5299    0.0000
C    2.4118   -0.4021   -0.0000
H   -1.2233    1.1588    0.8900
H   -1.2233    1.1588   -0.8900
H   -3.3260    0.1916   -0.0000
H   -2.3870   -1.0309   -0.8900
H   -2.3870   -1.0309    0.8900
H    1.2233    1.1588   -0.8900
H    1.2233    1.1588    0.8900
H    2.3870   -1.0309    0.8900
H    2.3870   -1.0309   -0.8900
H    3.3260    0.1916   -0.0000


