%nprocshared=4
%mem=100MW
%chk=RWLALWYNXFYRGW-UHFFFAOYSA-N.chk
#b3lyp/6-31+G(d) opt freq

gas opt

0 1
O    0.7326    1.9258   -0.1974
C    0.5031    0.6047    0.2968
C   -0.8696    0.1167   -0.1705
C   -1.1153   -1.2977    0.3586
O   -2.3285   -1.8099   -0.1965
C   -1.9534    1.0560    0.3624
C   -3.3067    0.6636   -0.2338
C    1.5869   -0.3346   -0.2362
C    2.9456    0.0799    0.3322
C    4.0293   -0.8594   -0.2007
H    0.7191    1.9927   -1.1620
H    0.5339    0.6139    1.3863
H   -0.9005    0.1075   -1.2600
H   -0.2842   -1.9422    0.0723
H   -1.1962   -1.2702    1.4452
H   -2.5477   -2.7051    0.0961
H   -1.9989    0.9790    1.4487
H   -1.7159    2.0818    0.0805
H   -4.0500    1.4179    0.0245
H   -3.2199    0.5954   -1.3182
H   -3.6143   -0.3020    0.1675
H    1.3627   -1.3572    0.0673
H    1.6152   -0.2764   -1.3243
H    3.1697    1.1025    0.0288
H    2.9173    0.0217    1.4203
H    3.8052   -1.8821    0.1027
H    4.0576   -0.8013   -1.2888
H    4.9973   -0.5642    0.2042


