%nprocshared=4
%mem=100MW
%chk=RWNKSTSCBHKHTB-UHFFFAOYSA-N.chk
#b3lyp/6-31+G(d) opt freq

gas opt

0 1
Cl   -3.1898    0.9604    0.0786
C   -1.8202   -0.1039    0.0054
C   -0.5459    0.4169   -0.0763
Cl   -0.3175    2.1283   -0.2568
C    0.5470   -0.4219   -0.0146
C    1.8194    0.1067    0.0435
Cl    2.0406    1.8163    0.2484
Cl    3.1999   -0.9376   -0.0883
Cl    0.3210   -2.1431   -0.0100
Cl   -2.0544   -1.8236    0.0423


