%nprocshared=4
%mem=100MW
%chk=RXKNNAKAVAHBNK-UHFFFAOYSA-N.chk
#b3lyp/6-31+G(d) opt freq

gas opt

0 1
O    2.7321   -1.0548    0.0011
N    2.1231    0.0000    0.0008
O    2.7321    1.0548   -0.0041
C    0.6431    0.0000    0.0003
C   -0.0664   -1.1913    0.0001
C   -1.4477   -1.1527   -0.0005
N   -2.0906    0.0000   -0.0008
O   -3.5066   -0.0000   -0.0010
C   -1.4477    1.1527   -0.0007
C   -0.0664    1.1913    0.0057
H    0.4541   -2.1376    0.0000
H   -2.0075   -2.0762   -0.0010
H   -2.0075    2.0762   -0.0014
H    0.4541    2.1376    0.0057


