%nprocshared=4
%mem=100MW
%chk=RZFZBHKDGHISSH-UHFFFAOYSA-N.chk
#b3lyp/6-31+G(d) opt freq

gas opt

0 1
Cl   -0.4440   -2.7075   -0.1672
C   -1.3070   -1.2041   -0.0741
C   -0.6071   -0.0003   -0.0003
C   -1.3067    1.2037    0.0738
Cl   -0.4433    2.7070    0.1654
C   -2.6879    1.1980    0.0738
C   -3.3776   -0.0000    0.0009
Cl   -5.1136    0.0001    0.0019
C   -2.6882   -1.1977   -0.0786
C    0.8765   -0.0005   -0.0002
C    1.5757    0.5747   -1.0595
C    2.9556    0.5725   -1.0546
C    3.6454   -0.0004    0.0003
Cl    5.3814   -0.0006    0.0004
C    2.9553   -0.5727    1.0552
C    1.5754   -0.5707    1.0621
H   -3.2308    2.1298    0.1312
H   -3.2313   -2.1295   -0.1357
H    1.0385    1.0213   -1.8832
H    3.4985    1.0180   -1.8751
H    3.4979   -1.0180    1.8760
H    1.0380   -1.0171    1.8857


