%nprocshared=4
%mem=100MW
%chk=RZILCCPWPBTYDO-UHFFFAOYSA-N.chk
#b3lyp/6-31+G(d) opt freq

gas opt

0 1
F   -3.7402    0.8560   -1.1034
C   -3.1900    0.5334    0.1418
F   -2.9261    1.7086    0.8535
F   -4.0949   -0.2543    0.8614
C   -1.9071   -0.2313   -0.0588
C   -0.7074    0.4468   -0.1547
C    0.4742   -0.2586   -0.3390
N    1.6913    0.4254   -0.4361
C    2.8133   -0.1199    0.0740
O    2.7851   -1.2409    0.5438
N    3.9665    0.5776    0.0634
C    5.1861   -0.0151    0.6179
C    4.0004    1.9284   -0.5027
C    0.4459   -1.6444   -0.4263
C   -0.7566   -2.3164   -0.3296
C   -1.9313   -1.6113   -0.1408
H   -0.6887    1.5245   -0.0868
H    1.7273    1.2919   -0.8706
H    5.7172   -0.5542   -0.1665
H    5.8258    0.7737    1.0139
H    4.9227   -0.7057    1.4190
H    3.7802    2.6555    0.2789
H    4.9906    2.1254   -0.9136
H    3.2557    2.0093   -1.2945
H    1.3633   -2.1959   -0.5700
H   -0.7793   -3.3941   -0.3974
H   -2.8705   -2.1391   -0.0655


