%nprocshared=4
%mem=100MW
%chk=RZVHIXYEVGDQDX-UHFFFAOYSA-N.chk
#b3lyp/6-31+G(d) opt freq

gas opt

0 1
O   -0.0001   -2.6248    0.4376
C    0.0000   -1.4360    0.1866
C    1.2762   -0.7037    0.0319
C    1.2762    0.7039    0.0308
C    0.0002    1.4364    0.1849
O    0.0003    2.6255    0.4345
C   -1.2760    0.7040    0.0311
C   -1.2760   -0.7048    0.0260
C   -2.4748   -1.3938   -0.1197
C   -3.6602   -0.6911   -0.2584
C   -3.6602    0.6913   -0.2528
C   -2.4745    1.3935   -0.1143
C    2.4748    1.3933   -0.1155
C    3.6598    0.6910   -0.2588
C    3.6597   -0.6914   -0.2576
C    2.4747   -1.3934   -0.1128
H   -2.4816   -2.4738   -0.1250
H   -4.5910   -1.2269   -0.3721
H   -4.5911    1.2279   -0.3615
H   -2.4820    2.4735   -0.1104
H    2.4816    2.4733   -0.1178
H    4.5904    1.2271   -0.3727
H    4.5904   -1.2278   -0.3702
H    2.4816   -2.4734   -0.1128


