%nprocshared=4
%mem=100MW
%chk=SAOKZLXYCUGLFA-UHFFFAOYSA-N.chk
#b3lyp/6-31+G(d) opt freq

gas opt

0 1
O    3.0281   -1.5664    0.1103
C    3.1129   -0.3611    0.1114
O    4.3196    0.2268    0.1079
C    5.4788   -0.6475    0.1028
C    6.7546    0.1971    0.0994
C    7.9716   -0.7166    0.2576
C    9.2366    0.1353    0.3793
C   10.4535   -0.7784    0.5375
C   11.7186    0.0736    0.6592
C    6.8578    0.9596   -1.2230
C    5.7257    1.9851   -1.3101
C    1.8639    0.4821    0.1104
C    0.6341   -0.4281    0.1080
C   -0.6340    0.4280    0.1070
C   -1.8638   -0.4822    0.1046
C   -3.1128    0.3610    0.1037
O   -3.0281    1.5663    0.1048
O   -4.3195   -0.2269    0.1016
C   -5.4788    0.6474    0.1007
C   -6.7545   -0.1972    0.0984
C   -7.9713    0.7164    0.2586
C   -9.2362   -0.1356    0.3814
C  -10.4529    0.7780    0.5417
C  -11.7178   -0.0740    0.6644
C   -6.8594   -0.9589   -1.2244
C   -5.7268   -1.9837   -1.3140
H    5.4626   -1.2775    0.9922
H    5.4564   -1.2755   -0.7878
H    6.7229    0.9065    0.9264
H    7.8552   -1.3246    1.1548
H    8.0536   -1.3665   -0.6136
H    9.3529    0.7433   -0.5179
H    9.1545    0.7853    1.2505
H   10.3372   -1.3863    1.4347
H   10.5356   -1.4283   -0.3337
H   12.5855   -0.5774    0.7719
H   11.8349    0.6816   -0.2379
H   11.6365    0.7235    1.5304
H    7.8179    1.4733   -1.2722
H    6.7778    0.2586   -2.0538
H    5.8799    2.6235   -2.1801
H    4.7719    1.4661   -1.4048
H    5.7188    2.5963   -0.4076
H    1.8491    1.1105    1.0009
H    1.8514    1.1120   -0.7791
H    0.6489   -1.0565   -0.7825
H    0.6465   -1.0580    0.9975
H   -0.6488    1.0564    0.9975
H   -0.6464    1.0579   -0.7825
H   -1.8490   -1.1107   -0.7858
H   -1.8514   -1.1121    0.9941
H   -5.4606    1.2757    0.9913
H   -5.4583    1.2771   -0.7887
H   -6.7218   -0.9071    0.9248
H   -7.8539    1.3238    1.1560
H   -8.0545    1.3668   -0.6121
H   -9.3536   -0.7431   -0.5160
H   -9.1530   -0.7861    1.2521
H  -10.3355    1.3854    1.4391
H  -10.5361    1.4284   -0.3290
H  -12.5846    0.5768    0.7786
H  -11.8352   -0.6815   -0.2330
H  -11.6346   -0.7245    1.5351
H   -7.8193   -1.4732   -1.2724
H   -6.7811   -0.2573   -2.0549
H   -5.7182   -2.5955   -0.4119
H   -5.8820   -2.6216   -2.1841
H   -4.7734   -1.4641   -1.4098


