%nprocshared=4
%mem=100MW
%chk=SBPBAQFWLVIOKP-UHFFFAOYSA-N.chk
#b3lyp/6-31+G(d) opt freq

gas opt

0 1
Cl   -3.4818   -1.9057   -0.7433
C   -2.4491   -0.5307   -0.5057
C   -2.9546    0.6076    0.0967
Cl   -4.6109    0.6653    0.6136
C   -2.1226    1.7029    0.2837
C   -0.8075    1.6140   -0.1432
Cl    0.2773    2.9531    0.0659
C   -0.3682    0.4390   -0.7405
O    0.9180    0.3400   -1.1624
P    1.9000   -0.3767   -0.1069
S    1.6060    0.3283    1.5929
O    1.6062   -1.9595   -0.0896
C    2.0773   -2.8274    0.9433
C    1.6226   -4.2592    0.6532
O    3.4300   -0.1195   -0.5372
C    4.0821    1.1419   -0.3769
C    5.5540    1.0090   -0.7727
N   -1.1893   -0.5859   -0.8972
H   -2.4919    2.6038    0.7509
H    3.1661   -2.7921    0.9790
H    1.6716   -2.5046    1.9021
H    1.9820   -4.9211    1.4411
H    0.5338   -4.2944    0.6175
H    2.0282   -4.5820   -0.3056
H    3.6001    1.8836   -1.0139
H    4.0128    1.4570    0.6642
H    6.0360    0.2673   -0.1357
H    5.6233    0.6938   -1.8138
H    6.0514    1.9711   -0.6504


