%nprocshared=4
%mem=100MW
%chk=SBYAVOHNDJTVPA-UHFFFAOYSA-N.chk
#b3lyp/6-31+G(d) opt freq

gas opt

0 1
O   -0.1574   -1.7953    0.0076
C   -0.1692   -0.5835   -0.0861
N    0.9896    0.0947   -0.2026
C    2.2671   -0.6158   -0.1059
C    3.4178    0.3789   -0.2711
C    3.4127    1.3636    0.8999
C    4.7471   -0.3782   -0.2950
N   -1.3415    0.0815   -0.0792
C   -2.5456   -0.4702    0.1203
O   -2.7052   -1.6583    0.3209
N   -3.5580    0.4060    0.0793
C   -3.0227    1.7507   -0.1807
C   -1.5011    1.5291   -0.2832
H    0.9778    1.0533   -0.3504
H    2.3414   -1.0988    0.8684
H    2.3235   -1.3702   -0.8907
H    3.2941    0.9255   -1.2060
H    4.2325    2.0723    0.7822
H    2.4657    1.9031    0.9169
H    3.5364    0.8171    1.8348
H    4.7507   -1.0798   -1.1293
H    5.5668    0.3305   -0.4127
H    4.8707   -0.9248    0.6399
H   -4.4952    0.1881    0.2016
H   -3.4193    2.1462   -1.1158
H   -3.2530    2.4209    0.6475
H   -0.9797    2.0903    0.4922
H   -1.1389    1.8127   -1.2713


