%nprocshared=4
%mem=100MW
%chk=SBZXBUIDTXKZTM-UHFFFAOYSA-N.chk
#b3lyp/6-31+G(d) opt freq

gas opt

0 1
O    0.0000    0.4795    0.0000
C   -1.1451    1.2578   -0.3536
C   -2.3045    0.3258   -0.7115
O   -2.6942   -0.4159    0.4461
C   -3.7761   -1.3215    0.2191
C    1.1451    1.2578    0.3536
C    2.3045    0.3258    0.7115
O    2.6942   -0.4159   -0.4461
C    3.7761   -1.3215   -0.2191
H   -1.4314    1.8867    0.4895
H   -0.9063    1.8867   -1.2113
H   -3.1493    0.9164   -1.0661
H   -1.9884   -0.3630   -1.4949
H   -3.4905   -2.0444   -0.5450
H   -4.0116   -1.8456    1.1453
H   -4.6514   -0.7651   -0.1162
H    1.4314    1.8867   -0.4895
H    0.9063    1.8867    1.2113
H    3.1493    0.9164    1.0661
H    1.9884   -0.3630    1.4949
H    4.6514   -0.7651    0.1162
H    3.4905   -2.0444    0.5450
H    4.0116   -1.8456   -1.1453


