%nprocshared=4
%mem=100MW
%chk=SDOJHDGZFOGOFD-UHFFFAOYSA-N.chk
#b3lyp/6-31+G(d) opt freq

gas opt

0 1
C   -0.5482    2.7858   -0.5327
C    0.1861    1.5027   -0.2448
C    1.5404    1.5894   -0.1326
C    2.1726    2.9534   -0.2457
C    2.3414    0.4456    0.0436
C    1.7298   -0.8317    0.0043
C    0.2772   -0.9113   -0.1445
C   -0.4825    0.2807   -0.0989
C   -1.9257    0.1422    0.0950
C   -2.5192   -1.1169   -0.1812
C   -1.7040   -2.2426   -0.4226
C   -0.3571   -2.1440   -0.3763
C   -3.9168   -1.2395   -0.1949
C   -4.6895   -0.1990    0.2240
C   -4.0991    0.9832    0.6562
C   -2.7434    1.1467    0.6158
C    2.5154   -1.9824    0.1141
C    3.8649   -1.8682    0.2807
C    4.4654   -0.6170    0.3556
C    3.7260    0.5256    0.2502
H   -0.5324    2.9808   -1.6050
H   -1.5807    2.6973   -0.1947
H   -0.0630    3.6080   -0.0067
H    2.2327    3.4090    0.7427
H    3.1751    2.8558   -0.6624
H    1.5671    3.5815   -0.8991
H   -2.1625   -3.1937   -0.6465
H    0.2404   -3.0316   -0.5216
H   -4.3774   -2.1551   -0.5365
H   -5.7643   -0.2924    0.2197
H   -4.7199    1.7853    1.0273
H   -2.3254    2.0420    1.0515
H    2.0597   -2.9605    0.0680
H    4.4713   -2.7588    0.3527
H    5.5334   -0.5451    0.4979
H    4.2282    1.4778    0.3341


