%nprocshared=4
%mem=100MW
%chk=SECXISVLQFMRJM-UHFFFAOYSA-N.chk
#b3lyp/6-31+G(d) opt freq

gas opt

0 1
O    1.0602   -1.6520    0.0471
C    0.2320   -0.7690   -0.0268
N    0.5079    0.5465   -0.0346
C    1.8578    1.1086    0.0546
C   -0.7171    1.3475   -0.1443
C   -1.8706    0.3892    0.2266
C   -1.2612   -0.9881   -0.1301
H    2.5843    0.2993    0.1270
H    2.0634    1.7029   -0.8358
H    1.9300    1.7420    0.9387
H   -0.6837    2.1851    0.5524
H   -0.8408    1.7095   -1.1649
H   -2.1043    0.4530    1.2894
H   -2.7547    0.5905   -0.3784
H   -1.5404   -1.2780   -1.1432
H   -1.5823   -1.7444    0.5862


