%nprocshared=4
%mem=100MW
%chk=SGEJQUSYQTVSIU-UHFFFAOYSA-N.chk
#b3lyp/6-31+G(d) opt freq

gas opt

0 1
S    1.7388   -0.5828   -0.3992
C    0.2153   -0.0298    0.2920
O    0.1728    1.0156    0.9121
N   -0.9029   -0.7652    0.1337
C   -2.1696   -0.3054    0.7084
C   -2.9057    0.5661   -0.3111
C   -4.2286    1.0463    0.2891
C   -4.9648    1.9178   -0.7304
C   -0.8518   -2.0245   -0.6133
C   -0.5388   -3.1743    0.3464
C    2.8284    0.7648    0.1231
C    4.2488    0.4954   -0.3778
C    5.1699    1.6345    0.0637
H   -2.7870   -1.1669    0.9631
H   -1.9702    0.2772    1.6078
H   -2.2884    1.4275   -0.5658
H   -3.1051   -0.0166   -1.2105
H   -4.8460    0.1848    0.5438
H   -4.0292    1.6289    1.1885
H   -4.3474    2.7792   -0.9851
H   -5.1641    1.3351   -1.6298
H   -5.9072    2.2599   -0.3028
H   -1.8148   -2.2025   -1.0917
H   -0.0736   -1.9642   -1.3742
H    0.4243   -2.9963    0.8248
H   -1.3169   -3.2345    1.1073
H   -0.5007   -4.1112   -0.2094
H    2.4685    1.7054   -0.2937
H    2.8327    0.8276    1.2113
H    4.6088   -0.4453    0.0390
H    4.2445    0.4326   -1.4660
H    4.8100    2.5751   -0.3531
H    5.1742    1.6973    1.1519
H    6.1818    1.4426   -0.2931


