%nprocshared=4
%mem=100MW
%chk=SGMHGVVTMOGJMX-UHFFFAOYSA-N.chk
#b3lyp/6-31+G(d) opt freq

gas opt

0 1
S    5.0302    0.3106   -0.3570
C    3.7918   -0.8323    0.3143
C    2.4119   -0.2773    0.0711
O    2.2773    0.7848   -0.4989
N    1.3276   -0.9611    0.4871
C    0.0540   -0.3966    0.3612
C   -1.0290   -1.2082    0.1052
C   -2.3059   -0.6382   -0.0202
C   -2.4596    0.7643    0.1190
C   -1.3327    1.5627    0.3800
C   -0.1075    0.9864    0.5023
C   -3.7391    1.3320   -0.0075
C   -4.8099    0.5311   -0.2609
C   -4.6588   -0.8477   -0.3973
C   -3.4358   -1.4331   -0.2817
H    6.1931   -0.3026   -0.0732
H    3.8860   -1.8003   -0.1780
H    3.9514   -0.9527    1.3858
H    1.4303   -1.8448    0.8738
H   -0.8968   -2.2751    0.0013
H   -1.4406    2.6319    0.4875
H    0.7544    1.6054    0.7033
H   -3.8720    2.3988    0.0963
H   -5.7916    0.9707   -0.3576
H   -5.5252   -1.4606   -0.5975
H   -3.3337   -2.5028   -0.3894


