%nprocshared=4
%mem=100MW
%chk=SJNIEBAPMPLYAB-UHFFFAOYSA-N.chk
#b3lyp/6-31+G(d) opt freq

gas opt

0 1
Cl   -5.3842   -1.4865   -0.6532
C   -4.0809   -0.4373   -0.1903
C   -4.2812    0.9605   -0.1355
O   -5.3758    1.4146   -0.4159
O   -3.2962    1.7999    0.2180
C   -2.0643    1.3475    0.5388
C   -1.7950   -0.0320    0.5054
C   -2.8672   -0.9572    0.1256
C   -2.6253   -2.4439    0.0759
C   -0.5213   -0.5038    0.8358
C    0.4663    0.3931    1.1938
O    1.7074   -0.0588    1.5163
P    2.7126   -0.1629    0.2630
S    1.8316   -0.9545   -1.1757
O    3.2043    1.3122   -0.1545
C    3.8434    1.5958   -1.4008
C    4.1778    3.0870   -1.4747
O    3.9872   -1.0582    0.6703
C    4.8981   -1.5976   -0.2896
C    5.9878   -2.3930    0.4322
C    0.1956    1.7580    1.2251
C   -1.0578    2.2327    0.9017
H   -2.8481   -2.8810    1.0492
H   -3.2705   -2.8919   -0.6798
H   -1.5824   -2.6340   -0.1777
H   -0.3109   -1.5629    0.8116
H    4.7613    1.0133   -1.4792
H    3.1747    1.3324   -2.2203
H    4.6653    3.3034   -2.4253
H    3.2599    3.6695   -1.3962
H    4.8465    3.3505   -0.6552
H    4.3597   -2.2554   -0.9719
H    5.3551   -0.7845   -0.8536
H    6.6826   -2.8043   -0.3000
H    6.5262   -1.7352    1.1145
H    5.5308   -3.2060    0.9962
H    0.9742    2.4516    1.5062
H   -1.2565    3.2940    0.9291


