%nprocshared=4
%mem=100MW
%chk=SJRJJKPEHAURKC-UHFFFAOYSA-N.chk
#b3lyp/6-31+G(d) opt freq

gas opt

0 1
C    2.4173   -0.0000    0.0190
N    0.9861   -0.0000   -0.3118
C    0.3268    1.2098    0.2012
C   -1.1462    1.1976   -0.2162
O   -1.7627    0.0000    0.2643
C   -1.1462   -1.1976   -0.2162
C    0.3268   -1.2098    0.2012
H    2.5400    0.0326    1.1016
H    2.8806   -0.9058   -0.3720
H    2.8933    0.8732   -0.4270
H    0.3968    1.2291    1.2887
H    0.8147    2.0929   -0.2114
H   -1.6524    2.0638    0.2100
H   -1.2167    1.2325   -1.3034
H   -1.6524   -2.0638    0.2100
H   -1.2167   -1.2325   -1.3034
H    0.8147   -2.0929   -0.2114
H    0.3968   -1.2291    1.2887


