%nprocshared=4
%mem=100MW
%chk=SKGXYFVQZVPEFP-UHFFFAOYSA-N.chk
#b3lyp/6-31+G(d) opt freq

gas opt

0 1
Cl   -4.4492    0.6809   -0.0012
C   -2.8246    0.0690   -0.0017
C   -1.7542    0.9485   -0.0010
Cl   -2.0375    2.6613    0.0010
C   -0.4576    0.4604   -0.0014
O    0.5956    1.3219   -0.0002
C    1.8677    0.8399   -0.0002
C    2.0915   -0.5339   -0.0014
O    1.0386   -1.3949   -0.0025
C   -0.2335   -0.9129   -0.0025
C   -1.3066   -1.7881   -0.0032
C   -2.6008   -1.2965    0.0030
Cl   -3.9451   -2.3949    0.0027
C    3.3870   -1.0223   -0.0010
C    4.4572   -0.1436    0.0006
Cl    6.0814   -0.7564    0.0006
C    4.2344    1.2210    0.0018
C    2.9414    1.7139    0.0014
H   -1.1339   -2.8542   -0.0041
H    3.5628   -2.0879   -0.0015
H    5.0713    1.9037    0.0034
H    2.7699    2.7802    0.0026


