%nprocshared=4
%mem=100MW
%chk=SKKTUOZKZKCGTB-UHFFFAOYSA-N.chk
#b3lyp/6-31+G(d) opt freq

gas opt

0 1
O   -2.2165   -1.2129   -0.0000
C   -2.0937   -0.0041    0.0017
O   -0.8657    0.5479    0.0020
C    0.2659   -0.3619    0.0001
C    1.5672    0.4427    0.0008
C    2.7596   -0.5159   -0.0012
C    4.0610    0.2887   -0.0005
N   -3.1869    0.7843   -0.0023
H    0.2275   -0.9914    0.8892
H    0.2267   -0.9887   -0.8907
H    1.6056    1.0722   -0.8883
H    1.6064    1.0695    0.8917
H    2.7212   -1.1454    0.8879
H    2.7205   -1.1427   -0.8921
H    4.0994    0.9181   -0.8896
H    4.1001    0.9155    0.8904
H    4.9105   -0.3943   -0.0019
H   -4.0716    0.3867   -0.0065
H   -3.0889    1.7493   -0.0009


