%nprocshared=4
%mem=100MW
%chk=SLXKOJJOQWFEFD-UHFFFAOYSA-N.chk
#b3lyp/6-31+G(d) opt freq

gas opt

0 1
O    2.7142   -1.2769    0.0173
C    2.7641   -0.0698   -0.0002
O    3.9532    0.5525   -0.0183
C    1.4912    0.7369   -0.0082
C    0.2882   -0.2083    0.0089
C   -1.0041    0.6107    0.0009
C   -2.2071   -0.3345    0.0180
C   -3.4994    0.4845    0.0099
N   -4.6544   -0.4231    0.0264
H    4.7417   -0.0072   -0.0164
H    1.4619    1.3782    0.8727
H    1.4568    1.3525   -0.9071
H    0.3174   -0.8496   -0.8720
H    0.3226   -0.8239    0.9078
H   -1.0333    1.2520    0.8818
H   -1.0385    1.2263   -0.8980
H   -2.1778   -0.9758   -0.8629
H   -2.1727   -0.9501    0.9169
H   -3.5286    1.1258    0.8908
H   -3.5338    1.1001   -0.8890
H   -5.5207    0.0941    0.0214
H   -4.6159   -1.0714   -0.7458


