%nprocshared=4
%mem=100MW
%chk=SLZWBCGZQRRUNG-UHFFFAOYSA-N.chk
#b3lyp/6-31+G(d) opt freq

gas opt

0 1
O    2.7802    0.1411    1.0360
C    3.1052   -0.2389   -0.0715
O    2.1721   -0.3985   -1.0295
C    0.8753   -0.2167   -0.6643
C    0.3740    1.0658   -0.4965
C   -0.9441    1.2479   -0.1253
C   -1.4895    2.6409    0.0567
C   -0.3862    3.6619   -0.2287
C   -2.6532    2.8635   -0.9113
C   -1.9827    2.8117    1.4949
C   -1.7635    0.1531    0.0790
C   -1.2661   -1.1262   -0.0872
C   -2.1619   -2.3172    0.1367
C   -3.3470   -2.2527   -0.8288
C   -1.3715   -3.6036   -0.1112
C   -2.6765   -2.3046    1.5775
C    0.0496   -1.3134   -0.4643
N    4.4002   -0.4954   -0.3429
C    5.4160   -0.3160    0.6974
H    1.0138    1.9213   -0.6556
H   -0.0348    3.5402   -1.2533
H   -0.7807    4.6694   -0.0971
H    0.4428    3.5033    0.4610
H   -3.4391    2.1362   -0.7080
H   -3.0476    3.8711   -0.7797
H   -2.3018    2.7419   -1.9360
H   -1.1536    2.6531    2.1846
H   -2.3771    3.8192    1.6266
H   -2.7686    2.0844    1.6983
H   -2.7938    0.2975    0.3692
H   -2.9804   -2.2617   -1.8552
H   -3.9949   -3.1142   -0.6668
H   -3.9101   -1.3363   -0.6521
H   -0.5272   -3.6495    0.5766
H   -2.0194   -4.4650    0.0507
H   -1.0048   -3.6126   -1.1377
H   -3.2396   -1.3882    1.7542
H   -3.3244   -3.1660    1.7395
H   -1.8322   -2.3505    2.2653
H    0.4377   -2.3128   -0.5940
H    4.6596   -0.7987   -1.2269
H    5.4171    0.7223    1.0290
H    5.1900   -0.9669    1.5420
H    6.3967   -0.5700    0.2952


