%nprocshared=4
%mem=100MW
%chk=SNHRLVCMMWUAJD-UHFFFAOYSA-N.chk
#b3lyp/6-31+G(d) opt freq

gas opt

0 1
F    1.9170   -1.8816   -0.3059
C    2.2726   -0.5719    0.0341
C    3.7690   -0.5374    0.1536
C    4.1814   -2.0017    0.3169
C    4.5269   -0.0619   -1.0387
C    5.8700    0.0494   -0.9156
C    6.4015   -0.2769    0.4360
O    7.4224   -0.9182    0.6012
C    5.5878    0.2413    1.5703
C    4.2515    0.1312    1.4107
C    3.8974    0.3547   -2.3355
C    2.4378   -0.0988   -2.3933
C    1.7620    0.3396   -1.0875
C    0.2603    0.1461   -1.1819
C   -0.3441    0.6503    0.1570
C    0.2137    2.0365    0.4858
C   -1.8345    0.7542   -0.1478
O   -2.4981   -0.5021    0.1516
C   -3.7991   -0.5948   -0.1657
O   -4.3394    0.3023   -0.7683
C   -4.5858   -1.8178    0.2297
C   -6.0317   -1.6709   -0.2487
C   -6.8304   -2.9125    0.1527
C   -8.2762   -2.7656   -0.3257
C   -2.4536    1.8737    0.6487
O   -2.1264    3.0170    0.4386
C   -3.4811    1.5665    1.7075
O   -3.9177    2.7840    2.3150
C   -1.9218    1.0595   -1.6641
C   -2.5380    2.4421   -1.8869
C   -0.4646    1.0325   -2.2009
C    0.0594   -0.3330    1.2376
C    1.5936   -0.2533    1.3612
O    2.0347   -1.2031    2.3334
H    3.8587   -2.5696   -0.5557
H    5.2654   -2.0655    0.4114
H    3.7139   -2.4133    1.2114
H    6.5065    0.3510   -1.7343
H    6.0331    0.6813    2.4503
H    3.5613    0.4903    2.1597
H    3.9404    1.4403   -2.4237
H    4.4467   -0.0948   -3.1627
H    1.9390    0.3683   -3.2425
H    2.3913   -1.1838   -2.4875
H    2.0065    1.3789   -0.8685
H    0.0218   -0.9061   -1.3369
H   -0.0798    2.7403   -0.2931
H   -0.1830    2.3697    1.4448
H    1.3012    1.9871    0.5399
H   -4.1396   -2.7006   -0.2282
H   -4.5711   -1.9243    1.3144
H   -6.4779   -0.7881    0.2091
H   -6.0464   -1.5644   -1.3334
H   -6.3841   -3.7953   -0.3051
H   -6.8156   -3.0190    1.2374
H   -8.8452   -3.6502   -0.0397
H   -8.7225   -1.8828    0.1322
H   -8.2910   -2.6591   -1.4104
H   -4.3330    1.0620    1.2515
H   -3.0393    0.9201    2.4658
H   -4.5813    2.6620    3.0077
H   -2.5201    0.2984   -2.1651
H   -1.9182    3.1980   -1.4047
H   -2.5947    2.6466   -2.9560
H   -3.5400    2.4665   -1.4586
H   -0.0388    2.0358   -2.2112
H   -0.4280    0.5866   -3.1949
H   -0.4032   -0.0539    2.1843
H   -0.2484   -1.3401    0.9562
H    1.8737    0.7478    1.6891
H    1.6664   -1.0622    3.2164


