%nprocshared=4
%mem=100MW
%chk=SNICXCGAKADSCV-UHFFFAOYSA-N.chk
#b3lyp/6-31+G(d) opt freq

gas opt

0 1
C   -0.7026   -1.8435    0.4766
N   -1.6069   -0.7122    0.7227
C   -0.8828    0.5698    0.6443
C    0.5487    0.3262    0.2413
C    1.5790    0.5906    1.1241
N    2.8339    0.3804    0.7785
C    3.1565   -0.0866   -0.4120
C    2.1803   -0.3740   -1.3469
C    0.8486   -0.1712   -1.0174
C   -1.5900    1.4296   -0.4243
C   -3.0117    0.8115   -0.4855
C   -2.7094   -0.6912   -0.2621
H    0.1710   -1.7576    1.1228
H   -1.2224   -2.7774    0.6906
H   -0.3855   -1.8349   -0.5662
H   -0.9154    1.0737    1.6103
H    1.3534    0.9740    2.1082
H    4.1957   -0.2460   -0.6592
H    2.4508   -0.7555   -2.3203
H    0.0644   -0.3870   -1.7279
H   -1.6364    2.4726   -0.1109
H   -1.0879    1.3374   -1.3873
H   -3.6433    1.2054    0.3108
H   -3.4677    0.9772   -1.4616
H   -2.3935   -1.1576   -1.1953
H   -3.5864   -1.1991    0.1391


