%nprocshared=4
%mem=100MW
%chk=SNIOPGDIGTZGOP-UHFFFAOYSA-N.chk
#b3lyp/6-31+G(d) opt freq

gas opt

0 1
O   -1.2871   -1.9621   -0.9463
N   -0.7275   -2.1168    0.1245
O    0.1065   -1.0959    0.6414
C    0.2002    0.0580   -0.1964
C   -0.9723    0.9966    0.0953
O   -2.1964    0.3589   -0.2749
N   -3.3495    1.1477   -0.0440
O   -3.2388    2.2638    0.4310
O   -4.4521    0.7101   -0.3204
C    1.5171    0.7852    0.0825
O    2.6123   -0.0494   -0.2998
N    3.8842    0.5334   -0.0814
O    3.9681    1.6518    0.3937
O    4.8943   -0.0836   -0.3688
O   -0.8892   -3.1475    0.7529
H    0.1688   -0.2486   -1.2419
H   -0.9929    1.2325    1.1593
H   -0.8535    1.9157   -0.4784
H    1.5490    1.7117   -0.4908
H    1.5881    1.0133    1.1460


