%nprocshared=4
%mem=100MW
%chk=SPANOECCGNXGNR-UHFFFAOYSA-N.chk
#b3lyp/6-31+G(d) opt freq

gas opt

0 1
Cl    3.2527   -0.5050    1.4934
C    2.6319    0.4043    0.1512
C    3.3804    0.6040   -0.9088
Cl    4.9909   -0.0414   -0.9683
C    1.2317    0.9593    0.2003
S    0.0422   -0.3812   -0.0532
C   -1.4658    0.5243    0.0497
O   -1.4423    1.7244    0.2459
N   -2.6453   -0.1129   -0.0889
C   -2.6736   -1.5584   -0.3252
C   -3.3850   -2.2516    0.8385
C   -3.4240   -1.8478   -1.6268
C   -3.8991    0.6400   -0.0033
C   -3.9934    1.3199    1.3641
C   -3.9325    1.7019   -1.1043
H    2.9942    1.1697   -1.7438
H    1.0575    1.4206    1.1724
H    1.1094    1.7067   -0.5837
H   -1.6533   -1.9339   -0.4029
H   -4.4319   -1.9488    0.8566
H   -3.3215   -3.3323    0.7113
H   -2.9083   -1.9676    1.7767
H   -2.9862   -1.2636   -2.4362
H   -3.3471   -2.9093   -1.8622
H   -4.4731   -1.5767   -1.5093
H   -4.7410   -0.0407   -0.1294
H   -3.8783    0.5733    2.1498
H   -3.2042    2.0664    1.4539
H   -4.9648    1.8045    1.4627
H   -3.8855    1.2163   -2.0790
H   -4.8564    2.2753   -1.0282
H   -3.0794    2.3707   -0.9900


