%nprocshared=4
%mem=100MW
%chk=SPSSULHKWOKEEL-UHFFFAOYSA-N.chk
#b3lyp/6-31+G(d) opt freq

gas opt

0 1
O    0.6415   -3.5304    0.1279
N    1.2456   -2.4793    0.0108
O    2.4579   -2.4833   -0.1066
C    0.5058   -1.1972    0.0050
C    1.1972   -0.0002    0.0098
C    2.7042   -0.0005    0.0209
C    0.5063    1.1971    0.0041
N    1.2466    2.4788    0.0087
O    0.6436    3.5300    0.1303
O    2.4589    2.4823   -0.1090
C   -0.8760    1.1974   -0.0065
C   -1.5674    0.0003   -0.0109
N   -3.0476    0.0007   -0.0217
O   -3.6563    1.0556   -0.0267
O   -3.6568   -1.0540   -0.0255
C   -0.8765   -1.1969   -0.0108
H    3.0750    0.0002   -1.0041
H    3.0639    0.8889    0.5381
H    3.0635   -0.8910    0.5366
H   -1.4158    2.1328   -0.0110
H   -1.4166   -2.1321   -0.0142


