%nprocshared=4
%mem=100MW
%chk=STCOOQWBFONSKY-UHFFFAOYSA-N.chk
#b3lyp/6-31+G(d) opt freq

gas opt

0 1
P    0.0000   -0.6717   -0.6554
O    0.0000   -1.3622   -1.9645
O   -0.0000    0.9213   -0.8889
C    0.0000    1.8652    0.1840
C   -0.0000    3.2851   -0.3859
C   -0.0000    4.2957    0.7629
C   -0.0000    5.7156    0.1930
O   -1.3146   -1.0926    0.1733
C   -2.6393   -0.9478   -0.3425
C   -3.6480   -1.4407    0.6969
C   -5.0664   -1.2857    0.1447
C   -6.0752   -1.7786    1.1841
O    1.3146   -1.0926    0.1733
C    2.6393   -0.9478   -0.3425
C    3.6480   -1.4407    0.6969
C    5.0664   -1.2857    0.1447
C    6.0752   -1.7786    1.1841
H   -0.8900    1.7194    0.7962
H    0.8900    1.7194    0.7962
H    0.8900    3.4309   -0.9981
H   -0.8900    3.4309   -0.9981
H   -0.8900    4.1498    1.3751
H    0.8900    4.1499    1.3751
H   -0.0000    6.4355    1.0114
H    0.8900    5.8614   -0.4192
H   -0.8900    5.8614   -0.4192
H   -2.8300    0.1022   -0.5644
H   -2.7405   -1.5361   -1.2545
H   -3.4573   -2.4907    0.9189
H   -3.5469   -0.8524    1.6089
H   -5.2572   -0.2357   -0.0773
H   -5.1676   -1.8740   -0.7673
H   -7.0857   -1.6681    0.7907
H   -5.8845   -2.8286    1.4061
H   -5.9740   -1.1902    2.0961
H    2.7405   -1.5361   -1.2545
H    2.8300    0.1022   -0.5644
H    3.5469   -0.8524    1.6089
H    3.4573   -2.4907    0.9189
H    5.1676   -1.8740   -0.7673
H    5.2572   -0.2357   -0.0773
H    5.9740   -1.1902    2.0961
H    5.8845   -2.8286    1.4061
H    7.0857   -1.6681    0.7907


