%nprocshared=4
%mem=100MW
%chk=SVFKQHLOBRUZGV-UHFFFAOYSA-N.chk
#b3lyp/6-31+G(d) opt freq

gas opt

0 1
O   -1.0265   -2.7917    0.9070
C   -0.5472   -1.7900    0.4120
N    0.7743   -1.6906    0.4088
C    1.5162   -2.7892    1.0322
C    1.5317   -0.6508   -0.1259
C    1.1447    0.6800    0.0063
N   -0.0701    1.0168    0.6021
C   -0.0980    1.8272    1.8222
C   -0.1666    3.3093    1.4485
C   -1.2496    0.5764    0.0264
N   -2.1479    1.4558   -0.3925
C   -3.2540    1.0828   -1.0054
C   -3.5286   -0.2529   -1.2380
C   -2.6402   -1.2168   -0.7944
C   -1.4818   -0.8016   -0.1338
N    1.9187    1.6508   -0.4604
C    3.0483    1.3993   -1.0939
C    3.4744    0.1027   -1.2955
C    2.7097   -0.9462   -0.8037
H    0.8148   -3.5338    1.4086
H    2.1729   -3.2493    0.2938
H    2.1130   -2.4020    1.8581
H   -0.9730    1.5611    2.4152
H    0.8051    1.6404    2.4032
H   -0.1874    3.9123    2.3563
H    0.7084    3.5754    0.8556
H   -1.0698    3.4961    0.8676
H   -3.9586    1.8336   -1.3314
H   -4.4286   -0.5409   -1.7608
H   -2.8361   -2.2663   -0.9576
H    3.6475    2.2198   -1.4602
H    4.3926   -0.0939   -1.8290
H    3.0227   -1.9702   -0.9448


