%nprocshared=4
%mem=100MW
%chk=SYBYTAAJFKOIEJ-UHFFFAOYSA-N.chk
#b3lyp/6-31+G(d) opt freq

gas opt

0 1
O   -0.8658   -1.0961    0.7150
C   -0.7147   -0.1318    0.0041
C    0.6711    0.2831   -0.4184
C    1.2430    1.2669    0.6044
C    1.5714   -0.9515   -0.4972
C   -1.9123    0.6531   -0.4658
H    0.6247    0.7620   -1.3965
H    1.2894    0.7880    1.5825
H    2.2454    1.5670    0.2988
H    0.6017    2.1464    0.6605
H    1.1639   -1.6523   -1.2259
H    2.5737   -0.6514   -0.8028
H    1.6178   -1.4303    0.4809
H   -2.1326    1.4438    0.2514
H   -1.6983    1.0946   -1.4391
H   -2.7722   -0.0115   -0.5494


