%nprocshared=4
%mem=100MW
%chk=SZYWFOPNFNROQB-UHFFFAOYSA-N.chk
#b3lyp/6-31+G(d) opt freq

gas opt

0 1
Cl   -2.4141   -1.6891   -0.0001
C   -1.1070   -0.5467   -0.0006
C   -1.3682    0.7850   -0.0006
Cl   -3.0181    1.3251   -0.0000
C   -0.3418    1.7306   -0.0005
C    0.9632    1.3619   -0.0004
Cl    2.2081    2.5718    0.0002
C    1.3097   -0.0139   -0.0005
N    2.4904   -0.6115   -0.0004
S    2.2893   -2.1539   -0.0005
N    0.7357   -2.2291   -0.0006
C    0.2359   -1.0038    0.0048
H   -0.5927    2.7811   -0.0008


