%nprocshared=4
%mem=100MW
%chk=TXCDCPKCNAJMEE-UHFFFAOYSA-N.chk
#b3lyp/6-31+G(d) opt freq

gas opt

0 1
O   -0.0000   -1.6162   -0.0001
C   -1.1173   -0.8563   -0.0003
C   -0.7377    0.4934   -0.0004
C    0.7377    0.4934   -0.0002
C    1.1173   -0.8563   -0.0001
C    2.4687   -1.1794    0.0001
C    3.4188   -0.1795    0.0001
C    3.0405    1.1533   -0.0000
C    1.7037    1.4935    0.0002
C   -1.7037    1.4935   -0.0002
C   -3.0405    1.1533    0.0001
C   -3.4188   -0.1795    0.0002
C   -2.4687   -1.1794    0.0003
H    2.7755   -2.2149    0.0006
H    4.4674   -0.4380    0.0006
H    3.7937    1.9273    0.0004
H    1.4086    2.5324   -0.0004
H   -1.4085    2.5324    0.0001
H   -3.7937    1.9273    0.0007
H   -4.4675   -0.4380    0.0008
H   -2.7755   -2.2149   -0.0003


