%nprocshared=4
%mem=100MW
%chk=TXVHTIQJNYSSKO-UHFFFAOYSA-N.chk
#b3lyp/6-31+G(d) opt freq

gas opt

0 1
C   -0.8610    0.7066    0.0021
C   -0.8608   -0.7067    0.0019
C    0.3495   -1.4294    0.0005
C    1.6315   -0.7038   -0.0004
C    1.6313    0.7045   -0.0002
C    0.3492    1.4297    0.0010
C    0.3157    2.8202    0.0005
C   -0.8958    3.4896    0.0012
C   -2.0890    2.7999    0.0024
C   -2.0926    1.4007   -0.0025
C   -3.3082    0.6746   -0.0013
C   -3.3080   -0.6757   -0.0062
C   -2.0921   -1.4013    0.0025
C   -2.0880   -2.8004   -0.0027
C   -0.8946   -3.4898    0.0065
C    0.3166   -2.8199   -0.0004
C    2.8437    1.3941   -0.0006
C    4.0301    0.6940   -0.0012
C    4.0302   -0.6934   -0.0015
C    2.8439   -1.3935   -0.0011
H    1.2392    3.3801   -0.0000
H   -0.9063    4.5696    0.0012
H   -3.0238    3.3408    0.0030
H   -4.2475    1.2076    0.0040
H   -4.2471   -1.2090   -0.0048
H   -3.0225   -3.3417   -0.0136
H   -0.9046   -4.5697    0.0026
H    1.2404   -3.3794    0.0067
H    2.8523    2.4741   -0.0008
H    4.9679    1.2296   -0.0019
H    4.9681   -1.2289   -0.0020
H    2.8525   -2.4734   -0.0008


