%nprocshared=4
%mem=100MW
%chk=TYHHDWAHJRRYCU-UHFFFAOYSA-N.chk
#b3lyp/6-31+G(d) opt freq

gas opt

0 1
O   -2.5030    2.3804   -0.0021
N   -1.4986    1.6915   -0.0018
O   -0.3998    2.2169    0.0031
C   -1.6133    0.2159   -0.0012
C   -0.4694   -0.5694   -0.0009
O    0.7575    0.0150   -0.0006
C    1.8908   -0.8554   -0.0003
C    3.1547   -0.0346   -0.0000
O    3.0914    1.1720   -0.0001
O    4.3507   -0.6440    0.0003
C   -0.5802   -1.9521   -0.0003
C   -1.8287   -2.5439   -0.0001
C   -2.9669   -1.7592   -0.0009
C   -2.8590   -0.3806    0.0048
H    1.8657   -1.4842    0.8898
H    1.8662   -1.4843   -0.8902
H    5.1330   -0.0756    0.0005
H    0.3087   -2.5656   -0.0004
H   -1.9155   -3.6204    0.0003
H   -3.9419   -2.2237   -0.0015
H   -3.7497    0.2303    0.0045


