%nprocshared=4
%mem=100MW
%chk=UBUCNCOMADRQHX-UHFFFAOYSA-N.chk
#b3lyp/6-31+G(d) opt freq

gas opt

0 1
O   -1.0551   -2.7018    0.2945
N    0.0124   -2.1380    0.1330
N    0.0560   -0.8516    0.0471
C    1.2894   -0.1973   -0.0276
C    2.4677   -0.9092    0.1597
C    3.6841   -0.2599    0.0848
C    3.7304    1.0974   -0.1763
C    2.5594    1.8091   -0.3633
C    1.3397    1.1652   -0.2950
C   -1.1302   -0.1117    0.0286
C   -2.1374   -0.4329   -0.8730
C   -3.3078    0.2998   -0.8881
C   -3.4781    1.3522   -0.0072
C   -2.4777    1.6747    0.8916
C   -1.3069    0.9429    0.9158
H    2.4323   -1.9691    0.3641
H    4.6005   -0.8126    0.2307
H    4.6831    1.6028   -0.2340
H    2.5991    2.8690   -0.5668
H    0.4257    1.7215   -0.4415
H   -2.0048   -1.2544   -1.5615
H   -4.0909    0.0509   -1.5890
H   -4.3944    1.9238   -0.0214
H   -2.6139    2.4974    1.5779
H   -0.5262    1.1951    1.6182


