%nprocshared=4
%mem=100MW
%chk=UCIUVGVKELKZSD-UHFFFAOYSA-N.chk
#b3lyp/6-31+G(d) opt freq

gas opt

0 1
O    1.0912   -1.4682    0.8394
C    1.4178   -0.4471    0.2723
N    2.7233   -0.1509    0.1162
C    3.7479   -1.0624    0.6315
C    4.1133   -2.0823   -0.4489
O    4.7254   -1.4098   -1.5512
C    3.1177    1.0825   -0.5689
C    3.2464    2.2144    0.4525
O    4.3166    1.9235    1.3536
C    0.3638    0.4875   -0.2633
O   -0.9531   -0.0531    0.0229
C   -2.0132    0.6667   -0.3926
O   -1.8422    1.7172   -0.9781
C   -3.3837    0.1785   -0.1363
C   -4.4848    0.9221   -0.5657
C   -5.7618    0.4601   -0.3235
C   -5.9529   -0.7369    0.3437
C   -4.8663   -1.4786    0.7723
C   -3.5838   -1.0314    0.5312
H    4.6350   -0.4927    0.9083
H    3.3628   -1.5838    1.5079
H    4.8090   -2.8137   -0.0377
H    3.2109   -2.5904   -0.7890
H    4.9839   -1.9962   -2.2753
H    4.0758    0.9313   -1.0663
H    2.3616    1.3449   -1.3088
H    3.4526    3.1504   -0.0666
H    2.3154    2.3066    1.0118
H    4.4560    2.6002    2.0301
H    0.4675    1.4628    0.2122
H    0.4864    0.5939   -1.3412
H   -4.3370    1.8569   -1.0859
H   -6.6144    1.0342   -0.6550
H   -6.9549   -1.0938    0.5310
H   -5.0226   -2.4117    1.2931
H   -2.7365   -1.6112    0.8663


