%nprocshared=4
%mem=100MW
%chk=UEJJHQNACJXSKW-UHFFFAOYSA-N.chk
#b3lyp/6-31+G(d) opt freq

gas opt

0 1
O    2.1554    1.4204   -1.9913
C    2.1486    0.8162   -0.9403
C    1.3058    1.3257    0.1988
N   -0.0363    0.7447    0.1129
C   -1.1778    1.4390    0.2700
O   -1.2578    2.6284    0.5019
C   -2.3184    0.5122    0.1121
C   -1.7538   -0.7539   -0.1447
C   -0.2895   -0.5523   -0.1392
O    0.5455   -1.4145   -0.3244
C   -2.5789   -1.8492   -0.3410
C   -3.9553   -1.6920   -0.2832
C   -4.5087   -0.4511   -0.0315
C   -3.6953    0.6542    0.1665
C    1.9555    0.9199    1.5260
C    2.1432   -0.6010    1.5324
C    2.9405   -1.0057    0.3208
O    3.6397   -1.9947    0.3725
N    2.8878   -0.2963   -0.8165
H    1.2366    2.4121    0.1433
H   -2.1519   -2.8213   -0.5385
H   -4.5994   -2.5453   -0.4365
H   -5.5823   -0.3413    0.0111
H   -4.1333    1.6216    0.3633
H    2.9248    1.4087    1.6236
H    1.3100    1.2125    2.3542
H    2.6765   -0.8984    2.4354
H    1.1686   -1.0884    1.5066
H    3.4104   -0.5955   -1.5769


