%nprocshared=4
%mem=100MW
%chk=UFNIBRDIUNVOMX-UHFFFAOYSA-N.chk
#b3lyp/6-31+G(d) opt freq

gas opt

0 1
Cl   -1.4980   -2.1450   -0.3270
C   -2.2266   -0.5867   -0.0932
C   -1.4245    0.5412    0.0792
C    0.0536    0.4134    0.0629
C    0.8191    1.2547   -0.7422
C    2.1935    1.1319   -0.7540
C    2.8120    0.1749    0.0323
Cl    4.5414    0.0254    0.0131
C    2.0559   -0.6629    0.8341
C    0.6812   -0.5445    0.8568
C   -2.0165    1.7882    0.2663
C   -3.3922    1.9015    0.2802
C   -4.1834    0.7800    0.1093
C   -3.6020   -0.4603   -0.0832
H    0.3374    2.0013   -1.3562
H    2.7876    1.7832   -1.3778
H    2.5430   -1.4077    1.4460
H    0.0922   -1.1985    1.4827
H   -1.4002    2.6649    0.4007
H   -3.8518    2.8680    0.4253
H   -5.2592    0.8737    0.1213
H   -4.2246   -1.3327   -0.2161


