%nprocshared=4
%mem=100MW
%chk=UFQCLRMJHOWNLX-UHFFFAOYSA-N.chk
#b3lyp/6-31+G(d) opt freq

gas opt

0 1
Br   -5.7451    0.2455   -0.7814
C   -4.4215   -0.8804   -0.0355
C   -3.0921   -0.5045   -0.0764
C   -2.1212   -1.3320    0.4721
N   -0.7759   -0.9548    0.4330
C   -0.4306    0.3797    0.5108
N   -1.3502    1.3090    0.7373
C   -1.0330    2.5914    0.8136
N    0.1946    3.0323    0.6727
C    1.2024    2.1769    0.4410
C    0.9140    0.7921    0.3570
C    1.9468   -0.1207    0.1155
C    3.2302    0.3270   -0.0377
O    4.2184   -0.5802   -0.2757
C    5.5624   -0.1403   -0.0550
C    6.5406   -1.1338   -0.6850
O    6.4418   -2.3909   -0.0126
C    7.3187   -3.3954   -0.5265
C    5.7310    1.2374   -0.7095
O    4.8012    2.1399   -0.1013
C    3.5234    1.6952    0.0464
C    2.5232    2.6136    0.2877
C   -2.4898   -2.5356    1.0603
C   -3.8197   -2.9055    1.0980
C   -4.7853   -2.0772    0.5558
H   -2.8088    0.4316   -0.5347
H   -0.0848   -1.6305    0.3511
H   -1.8200    3.3072    0.9998
H    1.7311   -1.1769    0.0505
H    5.7535   -0.0651    1.0155
H    6.2963   -1.2654   -1.7391
H    7.5570   -0.7513   -0.5926
H    7.0906   -3.5739   -1.5773
H    8.3514   -3.0597   -0.4308
H    7.1832   -4.3187    0.0367
H    6.7480    1.5968   -0.5528
H    5.5269    1.1642   -1.7777
H    2.7575    3.6658    0.3531
H   -1.7369   -3.1814    1.4874
H   -4.1065   -3.8410    1.5552
H   -5.8247   -2.3690    0.5866


