%nprocshared=4
%mem=100MW
%chk=ULBXWWGWDPVHAO-UHFFFAOYSA-N.chk
#b3lyp/6-31+G(d) opt freq

gas opt

0 1
Cl   -4.7019    1.1232    0.1983
C   -3.2919    0.1333   -0.0154
C   -2.0589    0.7230   -0.2237
C   -0.9323   -0.0698   -0.3944
N    0.3174    0.5240   -0.6049
C    1.4282   -0.0454   -0.0965
O    1.3560   -1.1168    0.4721
O    2.6180    0.5731   -0.2188
C    3.7717   -0.0983    0.3527
C    4.9750    0.2505   -0.4200
C    5.9347    0.5288   -1.0363
C    3.9522    0.3456    1.8057
C   -1.0475   -1.4534   -0.3555
C   -2.2817   -2.0369   -0.1472
C   -3.4019   -1.2454    0.0284
H   -1.9725    1.7991   -0.2538
H    0.3842    1.3453   -1.1167
H    3.6181   -1.1769    0.3187
H    6.7931    0.7776   -1.5876
H    4.8183   -0.1584    2.2347
H    4.1058    1.4242    1.8397
H    3.0612    0.0873    2.3779
H   -0.1726   -2.0725   -0.4884
H   -2.3715   -3.1128   -0.1172
H   -4.3660   -1.7042    0.1911


