%nprocshared=4
%mem=100MW
%chk=ULSIYEODSMZIPX-UHFFFAOYSA-N.chk
#b3lyp/6-31+G(d) opt freq

gas opt

0 1
O   -1.6575    1.1693    0.9548
C   -1.2227   -0.1173    0.5104
C   -1.9747   -0.4966   -0.7669
N   -3.4173   -0.5351   -0.4927
C    0.2573   -0.0779    0.2290
C    1.0405   -1.1865    0.4910
C    2.3980   -1.1503    0.2330
C    2.9724   -0.0056   -0.2874
C    2.1891    1.1026   -0.5502
C    0.8308    1.0650   -0.2963
H   -1.5076    1.8781    0.3143
H   -1.4257   -0.8570    1.2848
H   -1.7716    0.2431   -1.5414
H   -1.6430   -1.4780   -1.1060
H   -3.7373    0.3445   -0.1157
H   -3.9364   -0.7835   -1.3215
H    0.5917   -2.0807    0.8976
H    3.0100   -2.0162    0.4383
H    4.0332    0.0229   -0.4883
H    2.6379    1.9970   -0.9565
H    0.2188    1.9308   -0.5016


