%nprocshared=4
%mem=100MW
%chk=UNXHWFMMPAWVPI-UHFFFAOYSA-N.chk
#b3lyp/6-31+G(d) opt freq

gas opt

0 1
O    0.8206    1.6362   -0.0754
C    0.6711    0.2560    0.2634
C   -0.6711   -0.2560   -0.2634
O   -0.8206   -1.6362    0.0754
C   -1.8078    0.5502    0.3680
O   -3.0525    0.1518   -0.2099
C    1.8078   -0.5502   -0.3680
O    3.0525   -0.1518    0.2099
H    0.8014    1.8121   -1.0261
H    0.7033    0.1423    1.3470
H   -0.7033   -0.1423   -1.3470
H   -0.8014   -1.8121    1.0261
H   -1.8306    0.3664    1.4422
H   -1.6455    1.6123    0.1846
H   -3.8192    0.6230    0.1440
H    1.6455   -1.6123   -0.1846
H    1.8306   -0.3664   -1.4422
H    3.8192   -0.6230   -0.1440


