%nprocshared=4
%mem=100MW
%chk=UOAMTSKGCBMZTC-UHFFFAOYSA-N.chk
#b3lyp/6-31+G(d) opt freq

gas opt

0 1
Cl   -1.4695    2.9526   -0.1538
C   -0.0036    1.9595    0.1863
Cl    1.4743    2.9527   -0.0975
Cl   -0.0364    1.4076    1.9024
C    0.0142    0.7424   -0.7407
O    0.0402    1.1799   -2.1008
C    1.2395   -0.0876   -0.4564
C    2.3454    0.0083   -1.2803
C    3.4695   -0.7527   -1.0201
C    3.4878   -1.6103    0.0654
Cl    4.8995   -2.5661    0.3932
C    2.3808   -1.7056    0.8898
C    1.2591   -0.9405    0.6314
C   -1.2210   -0.0877   -0.5035
C   -2.1352    0.2938    0.4607
C   -3.2683   -0.4671    0.6786
C   -3.4876   -1.6106   -0.0687
Cl   -4.9108   -2.5665    0.2041
C   -2.5725   -1.9916   -1.0338
C   -1.4422   -1.2273   -1.2542
H    0.0526    0.4593   -2.7456
H    2.3310    0.6779   -2.1276
H    4.3332   -0.6781   -1.6642
H    2.3946   -2.3749    1.7373
H    0.3950   -1.0148    1.2749
H   -1.9639    1.1865    1.0440
H   -3.9821   -0.1693    1.4324
H   -2.7432   -2.8842   -1.6175
H   -0.7278   -1.5246   -2.0076


