%nprocshared=4
%mem=100MW
%chk=UPMXNNIRAGDFEH-UHFFFAOYSA-N.chk
#b3lyp/6-31+G(d) opt freq

gas opt

0 1
Br   -2.8404    0.8550   -0.0058
C   -1.2049   -0.0943   -0.0035
C   -0.0000    0.5989   -0.0053
O    0.0000    1.9568   -0.0082
C    1.2049   -0.0943   -0.0036
Br    2.8404    0.8550   -0.0054
C    1.2092   -1.4725   -0.0001
C    0.0000   -2.1731    0.0017
C    0.0000   -3.6051    0.0058
N    0.0000   -4.7411    0.0091
C   -1.2092   -1.4725    0.0057
H    0.0002    2.3520    0.8743
H    2.1458   -2.0104    0.0009
H   -2.1458   -2.0103    0.0075


