%nprocshared=4
%mem=100MW
%chk=UPTOWXNJLZJTGD-UHFFFAOYSA-N.chk
#b3lyp/6-31+G(d) opt freq

gas opt

0 1
O    1.5829   -2.6440    0.0022
N    1.7281   -1.4347    0.0018
O    2.8480   -0.9557   -0.0032
C    0.5437   -0.5471    0.0013
C    0.7090    0.8302    0.0008
O    1.9593    1.3649    0.0004
C    2.0552    2.7906   -0.0001
C   -0.4007    1.6617    0.0004
C   -1.6710    1.1185    0.0004
C   -1.8362   -0.2584    0.0009
O   -3.0865   -0.7931    0.0004
C   -4.1837    0.1225   -0.0005
C   -0.7261   -1.0902   -0.0045
H    3.1049    3.0842   -0.0004
H    1.5667    3.1874   -0.8900
H    1.5671    3.1879    0.8899
H   -0.2720    2.7341    0.0004
H   -2.5352    1.7661    0.0004
H   -5.1211   -0.4337   -0.0007
H   -4.1339    0.7501    0.8893
H   -4.1330    0.7495   -0.8907
H   -0.8548   -2.1625   -0.0045


