%nprocshared=4
%mem=100MW
%chk=UQDUPQYQJKYHQI-UHFFFAOYSA-N.chk
#b3lyp/6-31+G(d) opt freq

gas opt

0 1
O    5.1501   -1.2361    0.0030
C    5.2053   -0.0291    0.0030
O    6.3972    0.5882   -0.0021
C    7.5775   -0.2574   -0.0076
C    3.9359    0.7832    0.0026
C    2.7288   -0.1570    0.0022
C    1.4401    0.6677    0.0018
C    0.2330   -0.2724    0.0013
C   -1.0557    0.5523    0.0009
C   -2.2628   -0.3878    0.0004
C   -3.5515    0.4369    0.0000
C   -4.7586   -0.5032   -0.0004
C   -6.0473    0.3215   -0.0008
C   -7.2544   -0.6187   -0.0013
C   -8.5431    0.2060   -0.0017
H    7.5776   -0.8869    0.8822
H    7.5697   -0.8864   -0.8977
H    8.4713    0.3665   -0.0114
H    3.9066    1.4118    0.8926
H    3.9072    1.4118   -0.8873
H    2.7582   -0.7856   -0.8878
H    2.7576   -0.7856    0.8921
H    1.4108    1.2963    0.8918
H    1.4114    1.2964   -0.8882
H    0.2624   -0.9010   -0.8887
H    0.2618   -0.9011    0.8913
H   -1.0851    1.1809    0.8909
H   -1.0844    1.1810   -0.8891
H   -2.2334   -1.0164   -0.8895
H   -2.2340   -1.0165    0.8904
H   -3.5809    1.0655    0.8900
H   -3.5803    1.0655   -0.8899
H   -4.7292   -1.1318   -0.8904
H   -4.7298   -1.1319    0.8896
H   -6.0767    0.9501    0.8892
H   -6.0761    0.9501   -0.8908
H   -7.2250   -1.2473   -0.8913
H   -7.2256   -1.2473    0.8887
H   -8.5725    0.8346    0.8883
H   -8.5719    0.8347   -0.8917
H   -9.4031   -0.4637   -0.0020


