%nprocshared=4
%mem=100MW
%chk=UVKZSORBKUEBAZ-UHFFFAOYSA-N.chk
#b3lyp/6-31+G(d) opt freq

gas opt

0 1
C    0.3630   -0.0202   -0.7381
N   -0.9870   -0.0838   -0.1624
C   -1.7209   -1.2520   -0.6687
C   -3.0890   -1.3264    0.0133
N   -3.8326   -0.0864   -0.2496
C   -5.1826   -0.1500    0.3260
C   -3.0987    1.0818    0.2566
C   -1.7306    1.1562   -0.4254
C    1.0392    1.2512   -0.2938
C    1.8175    1.9675   -1.1838
C    2.4378    3.1338   -0.7763
C    2.2794    3.5839    0.5211
C    1.5004    2.8680    1.4108
C    0.8766    1.7041    1.0021
C    1.1655   -1.2063   -0.2690
C    2.0141   -1.8569   -1.1451
C    2.7502   -2.9449   -0.7149
C    2.6381   -3.3822    0.5917
C    1.7902   -2.7311    1.4681
C    1.0574   -1.6403    1.0390
H    0.2952   -0.0347   -1.8259
H   -1.8563   -1.1575   -1.7461
H   -1.1562   -2.1585   -0.4509
H   -3.6466   -2.1755   -0.3818
H   -2.9535   -1.4482    1.0880
H   -5.1115   -0.2929    1.4043
H   -5.7110    0.7801    0.1168
H   -5.7271   -0.9845   -0.1159
H   -3.6634    1.9884    0.0388
H   -2.9634    0.9873    1.3340
H   -1.1730    2.0054   -0.0303
H   -1.8661    1.2780   -1.5001
H    1.9412    1.6159   -2.1974
H    3.0464    3.6930   -1.4714
H    2.7646    4.4946    0.8397
H    1.3769    3.2195    2.4245
H    0.2679    1.1449    1.6972
H    2.1017   -1.5152   -2.1659
H    3.4126   -3.4536   -1.3996
H    3.2126   -4.2327    0.9277
H    1.7023   -3.0729    2.4888
H    0.3949   -1.1317    1.7237


