%nprocshared=4
%mem=100MW
%chk=UVTNFZQICZKOEM-UHFFFAOYSA-N.chk
#b3lyp/6-31+G(d) opt freq

gas opt

0 1
O    0.8353   -0.8059   -2.4831
C    0.7710    0.1910   -1.7954
N    0.5951    1.3968   -2.3712
C    0.8816    0.0807   -0.2965
C   -0.3948    0.6223    0.3503
C   -1.5967   -0.1915   -0.1337
N   -2.8004    0.2332    0.5934
C   -3.2311    1.5701    0.1631
C   -2.5480    2.6296    1.0300
C   -2.8449    1.7833   -1.3019
C   -3.8842   -0.7456    0.4345
C   -5.0203   -0.4103    1.4028
C   -4.4079   -0.6978   -1.0023
C    1.0657   -1.3645    0.0886
N    0.3692   -1.8660    1.0901
C    0.4970   -3.1246    1.4619
C    1.3741   -3.9694    0.8080
C    2.1235   -3.4780   -0.2497
C    1.9580   -2.1505   -0.6152
C    2.0654    0.8823    0.1802
C    3.3351    0.5754   -0.2719
C    4.4210    1.3106    0.1654
C    4.2370    2.3531    1.0544
C    2.9671    2.6606    1.5057
C    1.8808    1.9281    1.0651
H    0.5199    1.4673   -3.3357
H    0.5436    2.1941   -1.8211
H   -0.3148    0.5426    1.4344
H   -0.5280    1.6677    0.0717
H   -1.7404   -0.0273   -1.2016
H   -1.4160   -1.2506    0.0500
H   -4.3125    1.6553    0.2699
H   -1.4738    2.6127    0.8455
H   -2.9441    3.6139    0.7804
H   -2.7393    2.4170    2.0818
H   -3.3849    1.0723   -1.9272
H   -3.1024    2.7993   -1.6013
H   -1.7723    1.6303   -1.4209
H   -3.5059   -1.7448    0.6503
H   -5.4590    0.5494    1.1298
H   -5.7835   -1.1868    1.3504
H   -4.6278   -0.3547    2.4182
H   -3.5985   -0.9367   -1.6922
H   -5.2121   -1.4241   -1.1202
H   -4.7862    0.3014   -1.2181
H   -0.0902   -3.4996    2.2871
H    1.4746   -4.9992    1.1174
H    2.8169   -4.1148   -0.7790
H    2.5253   -1.7341   -1.4344
H    3.4789   -0.2391   -0.9664
H    5.4131    1.0703   -0.1872
H    5.0855    2.9271    1.3966
H    2.8234    3.4749    2.2005
H    0.8886    2.1684    1.4177


