%nprocshared=4
%mem=100MW
%chk=UYXAWHWODHRRMR-UHFFFAOYSA-N.chk
#b3lyp/6-31+G(d) opt freq

gas opt

0 1
O    0.6182   -1.8721   -1.2615
C    0.9326   -0.8522   -0.6865
N    2.0880   -0.7670    0.0065
C    2.9725   -1.9337    0.0594
C    2.4496    0.3511    0.6461
O    3.5065    0.3403    1.2451
N    1.7326    1.4803    0.6738
C    0.5463    1.5894    0.0389
O   -0.0927    2.6191    0.0732
C    0.0454    0.3777   -0.7242
C   -0.1581    0.7856   -2.1847
C   -1.2984   -0.0081   -0.1616
C   -1.4265   -1.1917    0.3465
C   -2.7019   -1.7209    0.9341
C   -3.6628   -0.5680    1.2328
C   -3.7573    0.3203   -0.0142
C   -2.4031    1.0060   -0.2198
H    3.6750   -1.8951   -0.7732
H    3.5233   -1.9296    1.0000
H    2.3774   -2.8443   -0.0092
H    2.0753    2.2433    1.1650
H    0.7893    1.1266   -2.6021
H   -0.5187   -0.0709   -2.7542
H   -0.8898    1.5917   -2.2383
H   -0.5619   -1.8388    0.3472
H   -3.1687   -2.4062    0.2266
H   -2.4798   -2.2547    1.8582
H   -4.6484   -0.9658    1.4748
H   -3.2843    0.0166    2.0713
H   -3.9975   -0.2924   -0.8831
H   -4.5305    1.0747    0.1311
H   -2.2553    1.7548    0.5584
H   -2.3893    1.4935   -1.1947


