%nprocshared=4
%mem=100MW
%chk=VDAMAZDKFJYVCT-UHFFFAOYSA-N.chk
#b3lyp/6-31+G(d) opt freq

gas opt

0 1
S    3.8709   -1.0636    0.3167
O    3.9392   -0.8741    1.7234
O    4.9682   -0.8245   -0.5539
N    3.4198   -2.6391    0.0785
C    2.5494   -0.0500   -0.2583
S    2.3803    0.5613   -1.8988
C    0.8819    1.3776   -1.4721
C    0.6036    1.1583   -0.1862
S   -0.8271    1.8212    0.6003
O   -0.5334    1.8732    1.9896
O   -1.2089    2.9616   -0.1566
C   -2.1214    0.6409    0.4091
C   -2.3045   -0.3431    1.3630
C   -3.3183   -1.2698    1.2153
C   -4.1532   -1.2123    0.1088
O   -5.1514   -2.1226   -0.0386
C   -5.9721   -2.0027   -1.2023
C   -3.9676   -0.2238   -0.8467
C   -2.9557    0.7038   -0.6916
C    1.5212    0.3663    0.4824
H    2.5571   -2.8422   -0.3157
H    4.0182   -3.3588    0.3332
H    0.2796    1.9667   -2.1478
H   -1.6543   -0.3874    2.2242
H   -3.4605   -2.0387    1.9603
H   -6.4614   -1.0287   -1.2030
H   -5.3536   -2.0993   -2.0946
H   -6.7273   -2.7887   -1.1969
H   -4.6160   -0.1771   -1.7091
H   -2.8110    1.4738   -1.4350
H    1.4162    0.1106    1.5264


