%nprocshared=4
%mem=100MW
%chk=VGPYEHKOIGNJKV-UHFFFAOYSA-N.chk
#b3lyp/6-31+G(d) opt freq

gas opt

0 1
S   -0.6525   -1.4681   -0.1690
O   -0.4556   -2.6639    0.5730
O   -1.0371   -1.4567   -1.5369
N   -1.7994   -0.5953    0.6465
C   -2.1755    0.6157    0.1899
O   -1.6729    1.0671   -0.8201
O   -3.1079    1.3253    0.8529
C   -3.4640    2.6214    0.3036
C    0.8579   -0.5662   -0.0692
C    1.7281   -0.7920    0.9816
C    2.9127   -0.0868    1.0628
C    3.2298    0.8501    0.0875
N    4.4272    1.5647    0.1663
C    2.3534    1.0744   -0.9667
C    1.1730    0.3617   -1.0449
H   -2.2006   -0.9556    1.4528
H   -4.2235    3.0862    0.9322
H   -2.5796    3.2578    0.2715
H   -3.8561    2.4931   -0.7053
H    1.4808   -1.5203    1.7397
H    3.5917   -0.2633    1.8839
H    5.0386    1.4070    0.9027
H    4.6476    2.2187   -0.5153
H    2.5968    1.8022   -1.7266
H    0.4914    0.5353   -1.8644


