%nprocshared=4
%mem=100MW
%chk=VIKNJXKGJWUCNN-XGXHKTLJSA-N.chk
#b3lyp/6-31+G(d) opt freq

gas opt

0 1
O   -5.7792   -0.4927    1.0331
C   -4.8036   -0.3475    0.3266
C   -4.0463    0.9087    0.3052
C   -2.7875    0.9212   -0.1318
C   -2.0631   -0.3011   -0.6055
H   -1.9301   -0.2178   -1.6841
C   -0.6727   -0.3669    0.0382
H   -0.7858   -0.5034    1.1137
C    0.0715    0.9508   -0.2232
H    0.1440    1.1313   -1.2957
C    1.4599    0.8196    0.3758
H    1.3933    0.5723    1.4352
C    2.1908   -0.3092   -0.3995
C    2.0495   -0.0796   -1.9055
C    3.6480   -0.1333    0.0158
O    4.5169   -0.5200   -1.0507
C    3.9347   -0.9291    1.2204
C    4.1634   -1.5638    2.1812
C    3.8078    1.3777    0.3175
C    2.3925    2.0177    0.1656
C    1.5280   -1.6179   -0.0149
C    0.0885   -1.5579   -0.5365
C   -0.6900    2.0965    0.4499
C   -2.0648    2.2553   -0.1704
C   -2.7928   -1.6019   -0.3212
C   -4.3000   -1.4573   -0.5755
H   -4.5094    1.8239    0.6436
H    2.4897    0.8820   -2.1693
H    2.5645   -0.8750   -2.4442
H    0.9936   -0.0822   -2.1760
H    5.4573   -0.4295   -0.8443
H    4.3680   -2.1315    3.0405
H    4.1616    1.5199    1.3386
H    4.5067    1.8280   -0.3873
H    2.2582    2.4232   -0.8373
H    2.2354    2.7896    0.9190
H    2.0564   -2.4516   -0.4772
H    1.5305   -1.7308    1.0693
H   -0.4325   -2.4709   -0.2481
H    0.1071   -1.4892   -1.6242
H   -0.8268    1.8709    1.5075
H   -0.1234    3.0216    0.3445
H   -1.9626    2.5539   -1.2138
H   -2.6266    3.0132    0.3754
H   -2.4037   -2.3791   -0.9790
H   -2.6135   -1.8914    0.7142
H   -4.8093   -2.3874   -0.3231
H   -4.4771   -1.2090   -1.6219


