%nprocshared=4
%mem=100MW
%chk=VMKOFRJSULQZRM-UHFFFAOYSA-N.chk
#b3lyp/6-31+G(d) opt freq

gas opt

0 1
Br   -3.5502    0.1898   -0.0000
C   -1.8783   -0.8446    0.0000
C   -0.6857    0.1139    0.0000
C    0.6155   -0.6911    0.0000
C    1.8081    0.2673    0.0000
C    3.1092   -0.5376   -0.0000
C    4.3018    0.4208    0.0000
C    5.6030   -0.3841   -0.0000
C    6.7956    0.5743    0.0000
H   -1.8396   -1.4727    0.8900
H   -1.8396   -1.4727   -0.8900
H   -0.7243    0.7420   -0.8900
H   -0.7243    0.7420    0.8900
H    0.6541   -1.3192    0.8900
H    0.6541   -1.3192   -0.8900
H    1.7694    0.8955   -0.8900
H    1.7694    0.8955    0.8900
H    3.1479   -1.1657    0.8900
H    3.1479   -1.1657   -0.8900
H    4.2632    1.0489   -0.8900
H    4.2632    1.0489    0.8900
H    5.6416   -1.0122    0.8900
H    5.6416   -1.0122   -0.8900
H    7.7226    0.0009   -0.0000
H    6.7569    1.2024   -0.8900
H    6.7569    1.2024    0.8900


