%nprocshared=4
%mem=100MW
%chk=VOKSWYLNZZRQPF-GDIGMMSISA-N.chk
#b3lyp/6-31+G(d) opt freq

gas opt

0 1
O    3.9607   -2.6418    0.9016
C    3.0259   -1.8880    0.2654
C    2.6056   -0.6880    0.8155
C    1.6553    0.0853    0.1669
C    1.2229    1.3732    0.8284
C    2.3941    2.0131    1.5766
C    0.6755    2.3309   -0.2351
H    0.2839    3.2280    0.2445
C    1.7914    2.7121   -1.2099
C   -0.4468    1.6170   -0.9880
H   -0.8957    2.3342   -1.6752
N   -1.4894    1.1545   -0.0811
C   -2.5856    0.5154   -0.8213
C   -3.7458    0.2728    0.1093
C   -4.2330   -0.9353    0.2477
C   -3.7285   -2.0557   -0.6249
C   -5.2978   -1.2048    1.2794
C   -0.9837    0.2719    0.9747
C    0.0819    1.0280    1.8021
C    0.1280    0.4793   -1.8138
C    1.1276   -0.3324   -1.0340
C    1.5427   -1.5413   -1.5811
C    2.4905   -2.3123   -0.9419
H    3.5916   -3.2844    1.5228
H    3.0203   -0.3533    1.7549
H    3.1991    2.2296    0.8744
H    2.0627    2.9392    2.0462
H    2.7548    1.3263    2.3424
H    2.1726    1.8135   -1.6951
H    1.3978    3.3932   -1.9644
H    2.5988    3.2011   -0.6648
H   -2.9028    1.1672   -1.6353
H   -2.2425   -0.4352   -1.2297
H   -4.1756    1.0950    0.6622
H   -2.8272   -2.4818   -0.1843
H   -4.4941   -2.8275   -0.7040
H   -3.4994   -1.6681   -1.6176
H   -5.5325   -0.2815    1.8090
H   -6.1951   -1.5790    0.7863
H   -4.9361   -1.9489    1.9891
H   -1.8030   -0.0099    1.6361
H   -0.5553   -0.6239    0.5251
H    0.4614    0.3822    2.5940
H   -0.3563    1.9269    2.2356
H   -0.6843   -0.1765   -2.1273
H    0.6095    0.8927   -2.7000
H    1.1368   -1.8677   -2.5271
H    2.8068   -3.2500   -1.3744


