%nprocshared=4
%mem=100MW
%chk=VOXZDWNPVJITMN-UHFFFAOYSA-N.chk
#b3lyp/6-31+G(d) opt freq

gas opt

0 1
O    5.8295   -0.0909   -0.0431
C    4.4745   -0.1941   -0.0096
C    3.6944    0.9466    0.0684
C    2.3082    0.8573    0.1090
C    1.7166   -0.3927    0.0630
C    2.4934   -1.5338   -0.0176
C    3.8711   -1.4419   -0.0500
C    0.2197   -0.5140    0.1214
C   -0.3769    0.7621   -0.4818
C   -1.8332    0.6004   -0.7504
C   -2.4727   -0.5520    0.0498
C   -2.4522   -0.2932    1.5582
C   -3.9462   -0.4096   -0.3935
O   -4.7965   -1.0304    0.5668
C   -4.1712    1.1234   -0.4181
C   -2.7611    1.7761   -0.4120
C   -1.8449   -1.8820   -0.2750
C   -0.3444   -1.7326   -0.5822
C    0.0364    1.9262    0.4090
C    1.5378    2.1466    0.2050
H    6.2466   -0.1042    0.8292
H    4.1656    1.9182    0.0973
H    2.0292   -2.5085   -0.0487
H    4.4709   -2.3381   -0.1007
H   -0.0282   -0.5635    1.1785
H    0.1265    0.9127   -1.4616
H   -1.9635    0.3834   -1.8331
H   -3.1083    0.5453    1.7919
H   -2.7982   -1.1829    2.0843
H   -1.4355   -0.0575    1.8726
H   -4.0781   -0.8381   -1.3791
H   -5.7377   -0.9783    0.3509
H   -4.7086    1.4073   -1.3227
H   -4.7311    1.4351    0.4633
H   -2.5275    2.2025    0.5594
H   -2.6967    2.5447   -1.1857
H   -1.9798   -2.5710    0.5679
H   -2.3480   -2.3190   -1.1496
H   -0.2005   -1.6344   -1.6627
H    0.1829   -2.6314   -0.2469
H   -0.5037    2.8283    0.1219
H   -0.1608    1.6907    1.4531
H    1.9264    2.7341    1.0368
H    1.6836    2.7113   -0.7193


