%nprocshared=4
%mem=100MW
%chk=VPGRYOFKCNULNK-UHFFFAOYSA-N.chk
#b3lyp/6-31+G(d) opt freq

gas opt

0 1
O   -5.6682   -2.4760    0.8117
C   -5.9937   -1.7640   -0.1086
O   -5.2916   -0.6520   -0.3776
C   -4.1538   -0.3676    0.4784
C   -3.4934    0.9100    0.0281
O   -3.9360    1.5180   -0.9167
C   -2.2802    1.4289    0.7571
C   -0.9972    0.7287    0.2296
C   -1.0431    0.8087   -1.2988
C    0.0252    1.6694    0.8381
C    1.4524    1.2702    0.5578
C    1.5331   -0.1426   -0.0250
C    2.9900   -0.6098   -0.1084
C    3.0217   -1.2312   -1.5099
C    4.0296    0.4676   -0.2028
C    5.3261    0.1105   -0.1771
C    5.7122   -1.2947   -0.0302
O    6.8675   -1.6289   -0.2790
C    4.7449   -2.3418    0.4442
C    3.3746   -1.7679    0.7911
C    3.6953    1.9270   -0.3168
C    2.1968    2.2202   -0.3831
C    0.6524   -1.0977    0.7565
C   -0.8162   -0.7063    0.6898
C   -0.4707    3.0258    0.3420
C   -1.9942    2.8903    0.3876
C   -7.1841   -2.1275   -0.9582
H   -4.4925   -0.2579    1.5086
H   -3.4385   -1.1877    0.4165
H   -2.3697    1.2947    1.8297
H   -1.2169    1.8407   -1.6035
H   -0.0943    0.4635   -1.7093
H   -1.8509    0.1789   -1.6715
H   -0.1190    1.6653    1.9433
H    2.0034    1.2636    1.5165
H    1.2004   -0.1116   -1.0556
H    2.7662   -0.4725   -2.2496
H    4.0209   -1.6159   -1.7143
H    2.3006   -2.0470   -1.5621
H    6.0981    0.8882   -0.2693
H    4.6329   -3.1162   -0.3188
H    5.1613   -2.8226    1.3405
H    3.3783   -1.4358    1.8293
H    2.6265   -2.5611    0.6831
H    4.1203    2.4451    0.5483
H    4.1730    2.3263   -1.2148
H    1.8490    2.0637   -1.4046
H    2.0107    3.2511   -0.0919
H    0.7660   -2.1085    0.3434
H    0.9768   -1.1318    1.8028
H   -1.2740   -0.8377    1.6800
H   -1.3370   -1.3807   -0.0035
H   -0.1455    3.8138    1.0195
H   -0.1261    3.2289   -0.6669
H   -2.4257    3.1329   -0.5806
H   -2.4020    3.5542    1.1524
H   -7.6201   -3.0576   -0.5937
H   -7.9268   -1.3317   -0.9025
H   -6.8663   -2.2562   -1.9928


