%nprocshared=4
%mem=100MW
%chk=VREFGVBLTWBCJP-UHFFFAOYSA-N.chk
#b3lyp/6-31+G(d) opt freq

gas opt

0 1
Cl   -1.9104   -3.8580   -0.4929
C   -0.6971   -2.6304   -0.3072
C   -1.0194   -1.3085   -0.5199
C   -0.0471   -0.3069   -0.3838
C   -0.4617    1.0882   -0.5702
N    0.1767    2.0317   -1.1714
C    1.4793    1.8043   -1.8063
C    2.4421    1.3604   -0.7339
N    2.2850    0.2656    0.0512
C    3.3392    0.2619    0.9091
C    3.5991   -0.7364    2.0077
N    4.0851    1.2900    0.5984
N    3.5550    1.9367   -0.3810
C    1.2582   -0.6739   -0.0481
C    1.5631   -2.0110    0.1837
C    0.5915   -2.9826    0.0602
C   -1.7768    1.4570    0.0035
C   -2.2975    0.7386    1.0796
C   -3.5229    1.0869    1.6096
C   -4.2350    2.1459    1.0754
C   -3.7240    2.8620    0.0076
C   -2.4965    2.5275   -0.5267
H   -2.0291   -1.0409   -0.7942
H    1.3894    1.0280   -2.5662
H    1.8345    2.7286   -2.2618
H    4.1941   -1.5613    1.6158
H    4.1412   -0.2508    2.8192
H    2.6499   -1.1192    2.3828
H    2.5672   -2.2903    0.4668
H    0.8376   -4.0185    0.2412
H   -1.7428   -0.0887    1.4971
H   -3.9272    0.5314    2.4429
H   -5.1939    2.4146    1.4934
H   -4.2846    3.6875   -0.4054
H   -2.0986    3.0872   -1.3602


