%nprocshared=4
%mem=100MW
%chk=VSNHCAURESNICA-UHFFFAOYSA-N.chk
#b3lyp/6-31+G(d) opt freq

gas opt

0 1
O   -0.4966   -1.2633    0.0002
C   -0.5182   -0.0477    0.0019
N    0.6368    0.6468    0.0013
O    1.8755   -0.0393   -0.0013
N   -1.6972    0.6054   -0.0013
H    0.6196    1.6167    0.0026
H    2.6476    0.5429   -0.0015
H   -2.5285    0.1056   -0.0049
H   -1.7144    1.5752    0.0001


