%nprocshared=4
%mem=100MW
%chk=VUNCWTMEJYMOOR-UHFFFAOYSA-N.chk
#b3lyp/6-31+G(d) opt freq

gas opt

0 1
Cl    0.0146    2.0813   -1.4804
C    0.0074    1.0519   -0.0002
Cl    0.0132    2.0836    1.4785
C   -1.1998    0.1410   -0.0000
C   -0.7407   -1.1073    0.0000
Cl   -1.7390   -2.5275   -0.0007
C    0.7247   -1.1177   -0.0001
C    1.2030    0.1258    0.0011
Cl    2.8755    0.5910    0.0005
Cl    1.7028   -2.5520    0.0008
Cl   -2.8653    0.6307    0.0009


