%nprocshared=4
%mem=100MW
%chk=VVNCNSJFMMFHPL-UHFFFAOYSA-N.chk
#b3lyp/6-31+G(d) opt freq

gas opt

0 1
S    2.3801   -0.0904   -0.3927
C    0.7222    0.3063    0.2273
C   -0.3256   -0.4244   -0.6148
N   -0.1781   -1.8743   -0.4298
C   -1.7046   -0.0002   -0.1797
O   -2.3493   -0.7068    0.5585
O   -2.2168    1.1627   -0.6123
C    0.6037   -0.1376    1.6866
C    0.4901    1.8157    0.1329
H    3.1851    0.6086    0.4272
H   -0.1840   -0.1761   -1.6666
H   -0.3051   -2.1300    0.5380
H   -0.8162   -2.3814   -1.0245
H   -3.1049    1.3921   -0.3063
H    1.3501    0.3830    2.2865
H   -0.3925    0.1008    2.0592
H    0.7690   -1.2129    1.7539
H    0.5745    2.1319   -0.9068
H   -0.5062    2.0541    0.5054
H    1.2365    2.3363    0.7328


