%nprocshared=4
%mem=100MW
%chk=VVQNEPGJFQJSBK-UHFFFAOYSA-N.chk
#b3lyp/6-31+G(d) opt freq

gas opt

0 1
O    0.5856   -1.4368    0.0022
C    0.2296   -0.2748    0.0028
O    1.1483    0.7116    0.0005
C    2.5443    0.3121   -0.0028
C   -1.2024    0.0549    0.0001
C   -2.1095   -0.9189   -0.0031
C   -1.6439    1.4958    0.0009
H    2.7501   -0.2820   -0.8932
H    3.1763    1.2002   -0.0045
H    2.7544   -0.2817    0.8868
H   -1.7932   -1.9515   -0.0037
H   -3.1620   -0.6765   -0.0051
H   -1.7480    1.8445   -1.0265
H   -2.6024    1.5819    0.5127
H   -0.9005    2.1033    0.5171


