%nprocshared=4
%mem=100MW
%chk=VVSSGCCPNDSLPL-UHFFFAOYSA-N.chk
#b3lyp/6-31+G(d) opt freq

gas opt

0 1
S   -3.2044   -0.0206   -0.1058
O   -3.6660   -1.2709   -0.5986
O   -3.5093    1.2203   -0.7275
N   -3.7429    0.0941    1.4560
C   -1.4467   -0.1280   -0.0449
S   -0.3456    1.2409   -0.0833
C    1.0412    0.1672    0.0158
S    2.7376    0.6803    0.0285
O    3.0135    1.0443   -1.3171
O    2.8185    1.6298    1.0826
C    3.6006   -0.8615    0.4740
C    2.9636   -1.9921   -0.3458
C    1.5734   -2.3077    0.1830
C    0.6386   -1.1165    0.0772
C   -0.7509   -1.2552    0.0428
H   -4.3425   -0.5796    1.8130
H   -3.4586    0.8350    2.0139
H    4.6597   -0.7776    0.2303
H    3.4785   -1.0608    1.5386
H    2.8917   -1.6850   -1.3892
H    3.5870   -2.8835   -0.2767
H    1.1567   -3.1367   -0.3890
H    1.6514   -2.6049    1.2288
H   -1.2306   -2.2221    0.0814


