%nprocshared=4
%mem=100MW
%chk=VXGYRCVTBHVXMZ-UHFFFAOYSA-N.chk
#b3lyp/6-31+G(d) opt freq

gas opt

0 1
O    3.1315   -1.4661    0.0014
C    2.8017   -0.2969    0.0012
O    3.7418    0.6682   -0.0039
C    1.3707    0.0665    0.0005
C    0.4066   -0.9299   -0.0000
C   -0.9491   -0.5752   -0.0007
C   -1.3186    0.7938   -0.0010
N   -2.6117    1.1318   -0.0008
C   -3.5556    0.2217   -0.0003
C   -3.2616   -1.1401    0.0004
C   -1.9607   -1.5560   -0.0007
C   -0.3153    1.7807   -0.0009
C    0.9934    1.4213    0.0060
H    4.6653    0.3814   -0.0073
H    0.6977   -1.9699   -0.0002
H   -4.5888    0.5362   -0.0002
H   -4.0614   -1.8660    0.0014
H   -1.7142   -2.6075   -0.0005
H   -0.5873    2.8258   -0.0011
H    1.7557    2.1863    0.0060


