%nprocshared=4
%mem=100MW
%chk=VXLVYFXPZGPXCT-UHFFFAOYSA-N.chk
#b3lyp/6-31+G(d) opt freq

gas opt

0 1
S    4.0524   -0.9556    0.1396
O    4.3019   -0.6382    1.5021
O    5.0109   -0.7627   -0.8915
N    3.6401   -2.5590    0.1009
C    2.6237   -0.0381   -0.3313
O    2.2956    0.3162   -1.5845
C    1.1433    1.0058   -1.5678
C    0.7220    1.0987   -0.2937
S   -0.7392    1.9040    0.2731
O   -0.5120    2.2347    1.6362
O   -1.0748    2.8684   -0.7151
C   -2.0326    0.7075    0.2602
C   -2.2694   -0.0649    1.3822
C   -3.2826   -1.0039    1.3745
C   -4.0630   -1.1713    0.2398
O   -5.0606   -2.0941    0.2299
C   -5.8235   -2.2118   -0.9727
C   -3.8236   -0.3947   -0.8846
C   -2.8126    0.5466   -0.8700
C    1.6735    0.4212    0.5028
H    2.7414   -2.8227   -0.1516
H    4.2973   -3.2344    0.3307
H    0.6404    1.4164   -2.4308
H   -1.6616    0.0658    2.2654
H   -3.4667   -1.6075    2.2510
H   -6.3041   -1.2586   -1.1929
H   -5.1637   -2.4849   -1.7963
H   -6.5846   -2.9818   -0.8462
H   -4.4295   -0.5234   -1.7693
H   -2.6261    1.1516   -1.7450
H    1.6462    0.3011    1.5758


