%nprocshared=4
%mem=100MW
%chk=WBJINCZRORDGAQ-UHFFFAOYSA-N.chk
#b3lyp/6-31+G(d) opt freq

gas opt

0 1
O   -2.2561    0.2805    0.0000
C   -1.2293   -0.3563   -0.0003
O   -0.0463    0.2779    0.0001
C    1.1459   -0.5509   -0.0003
C    2.3881    0.3424    0.0002
H   -1.2634   -1.4358    0.0037
H    1.1509   -1.1807    0.8893
H    1.1510   -1.1798   -0.8906
H    3.2830   -0.2798   -0.0001
H    2.3830    0.9721   -0.8895
H    2.3830    0.9712    0.8905


