%nprocshared=4
%mem=100MW
%chk=WCYYQNSQJHPVMG-UHFFFAOYSA-N.chk
#b3lyp/6-31+G(d) opt freq

gas opt

0 1
Cl   -4.6611   -1.5593   -0.0031
C   -3.1571   -0.6923   -0.0029
C   -3.1573    0.6918   -0.0014
Cl   -4.6617    1.5582    0.0003
C   -1.9593    1.3867   -0.0007
Cl   -1.9626    3.1227    0.0018
C   -0.7577    0.6957   -0.0016
O    0.4203    1.3766   -0.0005
C    1.5985    0.6964   -0.0010
C    1.5984   -0.6954   -0.0026
O    0.4204   -1.3757   -0.0036
C   -0.7576   -0.6949   -0.0032
C   -1.9588   -1.3866    0.0015
Cl   -1.9612   -3.1225    0.0069
C    2.7983   -1.3862   -0.0026
C    3.9962   -0.6918   -0.0011
Cl    5.5003   -1.5586   -0.0017
C    3.9963    0.6919    0.0005
Cl    5.5006    1.5583    0.0025
C    2.7986    1.3867    0.0006
H    2.7999   -2.4662   -0.0035
H    2.8006    2.4667    0.0018


