%nprocshared=4
%mem=100MW
%chk=WIDHRBRBACOVOY-UHFFFAOYSA-N.chk
#b3lyp/6-31+G(d) opt freq

gas opt

0 1
Cl   -4.0194   -1.4620   -0.5657
C   -2.8760   -0.2456   -0.0895
C   -1.5253   -0.5391   -0.0658
Cl   -0.9711   -2.1227   -0.5117
C   -0.6090    0.4397    0.3167
C    0.8419    0.1311    0.3437
C    1.7493    0.9817   -0.2850
C    3.0987    0.6900   -0.2570
Cl    4.2308    1.7482   -1.0394
C    3.5503   -0.4462    0.3953
Cl    5.2479   -0.8080    0.4280
C    2.6523   -1.2930    1.0212
C    1.3021   -1.0071    1.0026
C   -1.0605    1.7091    0.6730
C   -2.4107    1.9922    0.6461
C   -3.3176    1.0195    0.2608
Cl   -5.0148    1.3830    0.2293
H    1.3977    1.8673   -0.7934
H    3.0091   -2.1772    1.5286
H    0.6025   -1.6687    1.4917
H   -0.3544    2.4703    0.9703
H   -2.7606    2.9758    0.9226


