%nprocshared=4
%mem=100MW
%chk=WJNRPILHGGKWCK-UHFFFAOYSA-N.chk
#b3lyp/6-31+G(d) opt freq

gas opt

0 1
Cl    0.0000   -3.0687    0.0005
C   -0.0000   -1.3327    0.0008
N    1.1450   -0.6726    0.0601
C    1.1483    0.6581    0.0601
N    2.3431    1.3459    0.1214
C    3.6088    0.6110    0.1867
C    4.0603    0.2463   -1.2290
C    4.6730    1.4863    0.8517
N   -0.0000    1.3239    0.0005
C   -1.1483    0.6581   -0.0590
N   -2.3431    1.3459   -0.1209
C   -3.6088    0.6110   -0.1865
C   -4.0607    0.2466    1.2291
C   -4.6727    1.4861   -0.8521
N   -1.1448   -0.6727   -0.0637
H    2.3449    2.3159    0.1214
H    3.4707   -0.2994    0.7699
H    4.1983    1.1567   -1.8122
H    5.0020   -0.3005   -1.1805
H    3.3021   -0.3773   -1.7028
H    4.3514    1.7462    1.8603
H    5.6147    0.9395    0.9003
H    4.8111    2.3967    0.2685
H   -2.3449    2.3159   -0.1211
H   -3.4705   -0.2995   -0.7694
H   -5.0024   -0.3002    1.1804
H   -3.3028   -0.3769    1.7033
H   -4.1990    1.1571    1.8121
H   -4.3507    1.7457   -1.8606
H   -5.6144    0.9393   -0.9008
H   -4.8110    2.3967   -0.2691


