%nprocshared=4
%mem=100MW
%chk=WJRBRSLFGCUECM-UHFFFAOYSA-N.chk
#b3lyp/6-31+G(d) opt freq

gas opt

0 1
O   -2.2006    0.6273   -0.0007
C   -1.0761    0.1662   -0.0010
N    0.0339    0.9131    0.0003
C    1.1456    0.1513   -0.0005
O    2.2958    0.5344    0.0010
C    0.6588   -1.2842   -0.0026
N   -0.8084   -1.1522    0.0030
H    0.0380    1.8831    0.0012
H    0.9973   -1.8026   -0.8997
H    0.9968   -1.8051    0.8932
H   -1.4554   -1.8749    0.0038


