%nprocshared=4
%mem=100MW
%chk=WJUSVIUZCYELMK-UHFFFAOYSA-N.chk
#b3lyp/6-31+G(d) opt freq

gas opt

0 1
O   -1.0675   -1.5994    0.1415
C   -1.3621   -0.4542   -0.1280
C   -0.2840    0.5909   -0.2561
O    1.0168   -0.0326   -0.0899
C    2.0952    0.7700   -0.1766
O    1.9529    1.9581   -0.3855
C    3.4510    0.2051   -0.0178
C    4.5710    1.0341   -0.1072
C    5.8340    0.5001    0.0426
C    5.9925   -0.8538    0.2804
C    4.8870   -1.6810    0.3696
C    3.6179   -1.1592    0.2281
N   -2.6531   -0.1175   -0.3185
C   -3.6669   -1.1506   -0.5707
C   -3.0390   -2.5362   -0.4068
C   -4.8062   -0.9804    0.4391
C   -5.3377    0.4529    0.3657
C   -4.2196    1.4326    0.7293
C   -3.0746    1.2893   -0.2717
C   -1.8984    2.1646    0.1658
H   -0.3418    1.0537   -1.2413
H   -0.4228    1.3521    0.5116
H    4.4487    2.0908   -0.2935
H    6.7012    1.1401   -0.0263
H    6.9837   -1.2667    0.3965
H    5.0178   -2.7370    0.5547
H    2.7558   -1.8060    0.2979
H   -4.0544   -1.0426   -1.5837
H   -2.5966   -2.6194    0.5859
H   -3.8073   -3.2999   -0.5273
H   -2.2657   -2.6763   -1.1621
H   -5.6091   -1.6787    0.2028
H   -4.4344   -1.1795    1.4442
H   -5.6867    0.6594   -0.6461
H   -6.1649    0.5698    1.0658
H   -4.6050    2.4518    0.6995
H   -3.8533    1.2108    1.7316
H   -3.4134    1.5967   -1.2610
H   -1.5640    1.8554    1.1561
H   -1.0794    2.0544   -0.5451
H   -2.2138    3.2074    0.1979


