%nprocshared=4
%mem=100MW
%chk=WKLCYOHFTPREOW-UHFFFAOYSA-N.chk
#b3lyp/6-31+G(d) opt freq

gas opt

0 1
S   -2.9036   -0.1273   -0.1275
O   -3.1784   -1.3997   -0.6973
O   -3.3777    1.0918   -0.6829
N   -3.4647   -0.1812    1.4296
C   -1.1491    0.0126   -0.0452
S   -0.2764    1.5322    0.0102
C    1.2366    0.7547    0.0715
S    2.8154    1.5530    0.1495
C    3.8219    0.2235   -0.5648
C    3.5877   -1.0634    0.2245
C    2.1712   -1.5372    0.0949
O    1.9507   -2.7300    0.0250
C    1.0819   -0.6303    0.0517
C   -0.3189   -1.0125   -0.0113
H   -3.9648   -0.9528    1.7385
H   -3.2933    0.5589    2.0328
H    3.5364    0.0696   -1.6054
H    4.8759    0.4963   -0.5121
H    4.2579   -1.8375   -0.1493
H    3.8075   -0.8811    1.2764
H   -0.6496   -2.0404   -0.0319


