%nprocshared=4
%mem=100MW
%chk=WLJVXDMOQOGPHL-UHFFFAOYSA-N.chk
#b3lyp/6-31+G(d) opt freq

gas opt

0 1
O    1.6376    0.0058    1.2592
C    2.0726    0.0024    0.1320
O    3.3988   -0.0031   -0.0756
C    1.1263   -0.0020   -1.0408
C   -0.2949   -0.0012   -0.5396
C   -0.9474    1.1963   -0.3136
C   -2.2510    1.1970    0.1462
C   -2.9023    0.0002    0.3796
C   -2.2500   -1.1973    0.1527
C   -0.9479   -1.1980   -0.3112
H    3.9657   -0.0041    0.7077
H    1.2976    0.8861   -1.6491
H    1.2986   -0.8938   -1.6434
H   -0.4386    2.1313   -0.4960
H   -2.7606    2.1326    0.3234
H   -3.9205    0.0008    0.7395
H   -2.7587   -2.1323    0.3354
H   -0.4383   -2.1336   -0.4884


