%nprocshared=4
%mem=100MW
%chk=WMWJCKBJUQDYLM-UHFFFAOYSA-N.chk
#b3lyp/6-31+G(d) opt freq

gas opt

0 1
Cl   -5.0803    1.1301    0.0002
C   -3.5755    0.2645   -0.0006
C   -2.3782    0.9600   -0.0010
C   -1.1778    0.2701   -0.0012
O    0.0000    0.9505   -0.0010
C    1.1778    0.2701   -0.0009
C    1.1779   -1.1218   -0.0009
O   -0.0000   -1.8024   -0.0010
C   -1.1779   -1.1218   -0.0012
C   -2.3779   -1.8122   -0.0003
C   -3.5749   -1.1182    0.0047
C    2.3779   -1.8122   -0.0003
C    3.5749   -1.1183    0.0003
C    3.5755    0.2645    0.0003
Cl    5.0803    1.1302    0.0010
C    2.3782    0.9600   -0.0003
H   -2.3807    2.0400   -0.0014
H   -2.3797   -2.8922   -0.0002
H   -4.5106   -1.6576    0.0058
H    2.3797   -2.8922    0.0000
H    4.5106   -1.6576    0.0011
H    2.3807    2.0400   -0.0006


