%nprocshared=4
%mem=100MW
%chk=WRMNZCZEMHIOCP-UHFFFAOYSA-N.chk
#b3lyp/6-31+G(d) opt freq

gas opt

0 1
O    3.6081    0.0001    0.1886
C    2.2230    0.0008    0.5397
C    1.3741   -0.0013   -0.7332
C   -0.0867   -0.0006   -0.3628
C   -0.7566    1.1969   -0.1950
C   -2.0965    1.1975    0.1448
C   -2.7667    0.0007    0.3163
C   -2.0970   -1.1968    0.1476
C   -0.7581   -1.1974   -0.1964
H    4.2065    0.0014    0.9482
H    1.9970   -0.8882    1.1286
H    1.9971    0.8918    1.1256
H    1.6001    0.8876   -1.3221
H    1.5999   -0.8923   -1.3190
H   -0.2330    2.1319   -0.3290
H   -2.6197    2.1331    0.2766
H   -3.8134    0.0012    0.5825
H   -2.6205   -2.1318    0.2819
H   -0.2349   -2.1330   -0.3282


