%nprocshared=4
%mem=100MW
%chk=WRNGAZFESPEMCN-UHFFFAOYSA-N.chk
#b3lyp/6-31+G(d) opt freq

gas opt

0 1
Cl   -3.9286   -1.8940   -0.0039
C   -2.5398   -0.8525   -0.0032
C   -2.7064    0.5216   -0.0014
Cl   -4.3041    1.2007    0.0003
C   -1.6008    1.3555   -0.0004
Cl   -1.8128    3.0785    0.0025
C   -0.3247    0.8141   -0.0013
O    0.7629    1.6317    0.0002
C    2.0143    1.0980   -0.0003
C    2.1814   -0.2839   -0.0022
O    1.0939   -1.1007   -0.0036
C   -0.1574   -0.5664   -0.0032
C   -1.2667   -1.3976    0.0012
Cl   -1.0602   -3.1212    0.0066
C    3.4557   -0.8252   -0.0023
C    4.5611    0.0087   -0.0004
Cl    6.1588   -0.6703   -0.0005
C    4.3946    1.3814    0.0011
C    3.1230    1.9271    0.0016
H    3.5875   -1.8971   -0.0034
H    5.2589    2.0290    0.0022
H    2.9955    2.9995    0.0020


