%nprocshared=4
%mem=100MW
%chk=WURBVZBTWMNKQT-UHFFFAOYSA-N.chk
#b3lyp/6-31+G(d) opt freq

gas opt

0 1
Cl   -5.5212    0.0689   -0.1790
C   -3.8014    0.2772   -0.0655
C   -2.9628   -0.4283   -0.9102
C   -1.5941   -0.2636   -0.8218
C   -1.0606    0.6098    0.1147
O    0.2859    0.7735    0.2029
C    1.0928    0.0060   -0.6926
C    2.4203    0.6925   -0.8864
O    2.9803    0.6337   -1.9547
C    3.0490    1.4524    0.2531
C    4.4639    1.8821   -0.1397
C    2.2079    2.6917    0.5652
C    3.1136    0.5549    1.4905
N    1.3109   -1.3293   -0.1309
N    2.1317   -2.3401   -0.6573
C    2.0382   -3.3622    0.1521
N    1.2108   -3.0505    1.1489
C    0.7698   -1.8285    0.9938
C   -1.9030    1.3162    0.9606
C   -3.2714    1.1527    0.8656
H   -3.3786   -1.1085   -1.6389
H   -0.9398   -0.8147   -1.4810
H    0.5858   -0.0823   -1.6535
H    4.4180    2.5214   -1.0213
H    4.9187    2.4317    0.6845
H    5.0632    0.9991   -0.3621
H    1.2722    2.3871    1.0341
H    2.7588    3.3434    1.2433
H    1.9933    3.2276   -0.3594
H    3.7128   -0.3280    1.2681
H    3.5683    1.1045    2.3147
H    2.1055    0.2488    1.7703
H    2.5484   -4.3065    0.0321
H    0.0852   -1.3131    1.6512
H   -1.4894    1.9966    1.6903
H   -3.9276    1.7028    1.5238


