%nprocshared=4
%mem=100MW
%chk=WXMYDHQMJVPNTD-UHFFFAOYSA-N.chk
#b3lyp/6-31+G(d) opt freq

gas opt

0 1
F   -2.2161   -2.7330    0.5652
C   -1.3148   -1.7364    0.4247
C   -1.7370   -0.4088    0.4455
N   -3.0910   -0.1174    0.6117
C   -3.4784    1.0643   -0.1811
C   -4.7713    0.3235   -0.5502
N   -5.8674    0.5118    0.4096
C   -5.2049    0.5074   -2.0060
C   -3.9219   -0.9297   -0.2964
C   -0.8233    0.6269    0.3029
F   -1.2484    1.9091    0.3257
C    0.5272    0.3469    0.1373
N    1.4420    1.3717   -0.0047
C    0.9577    2.7540    0.0228
C    1.3803    3.6272    1.2059
C    1.9877    3.8675   -0.1777
C    2.7539    1.1541   -0.1660
C    3.2885   -0.1170   -0.2031
C    4.7332   -0.3141   -0.3818
O    5.4680    0.6474   -0.4985
O    5.2442   -1.5612   -0.4165
C    2.3874   -1.2738   -0.0600
O    2.8123   -2.4163   -0.0859
C    0.9560   -0.9940    0.1159
C    0.0276   -2.0359    0.2660
N    0.4532   -3.3626    0.2502
H   -3.6462    1.9562    0.4225
H   -2.8249    1.2483   -1.0338
H   -6.6913    0.0057    0.1214
H   -5.5840    0.2417    1.3396
H   -4.4228    0.1352   -2.6678
H   -6.1259   -0.0479   -2.1837
H   -5.3749    1.5657   -2.2035
H   -3.3867   -1.2777   -1.1799
H   -4.4654   -1.7276    0.2095
H   -0.0399    2.9109   -0.3875
H    0.6609    4.3589    1.5737
H    2.0187    3.1732    1.9638
H    3.0256    3.5716   -0.3300
H    1.6678    4.7572   -0.7201
H    3.4148    2.0018   -0.2709
H    6.2005   -1.6406   -0.5360
H   -0.1273   -4.0623    0.5884
H    1.3300   -3.5865   -0.0991


