%nprocshared=4
%mem=100MW
%chk=WXTMDXOMEHJXQO-UHFFFAOYSA-N.chk
#b3lyp/6-31+G(d) opt freq

gas opt

0 1
O   -2.7292   -0.0351    0.0027
C   -1.7676    0.7076    0.0035
O   -1.9477    2.0430    0.0043
C   -0.4039    0.1478    0.0095
C   -0.2124   -1.2408    0.0144
O   -1.2826   -2.0755    0.0132
C    1.0734   -1.7590    0.0202
C    2.1630   -0.9109    0.0215
C    1.9805    0.4664    0.0166
O    3.0601    1.2933    0.0179
C    0.7045    0.9987    0.0046
H   -2.8602    2.3629    0.0043
H   -1.5896   -2.3201   -0.8706
H    1.2232   -2.8286    0.0240
H    3.1623   -1.3203    0.0266
H    3.3754    1.5297   -0.8651
H    0.5648    2.0696    0.0008


