%nprocshared=4
%mem=100MW
%chk=WYEHFWKAOXOVJD-UHFFFAOYSA-N.chk
#b3lyp/6-31+G(d) opt freq

gas opt

0 1
F   -5.3974   -2.1408   -1.5451
C   -5.4068   -0.8622   -0.9773
F   -5.0350    0.0795   -1.9427
F   -6.6926   -0.5687   -0.5105
C   -4.4325   -0.8155    0.1714
C   -3.1179   -0.4545   -0.0528
C   -2.2215   -0.4118    1.0051
O   -0.9279   -0.0566    0.7872
C   -0.6769    1.2085    0.3741
C    0.6320    1.5850    0.0357
C    1.7394    0.6148    0.1257
O    1.5223   -0.5231    0.4958
N    2.9918    0.9893   -0.2022
C    4.0219    0.0405   -0.2304
C    5.3418    0.4394   -0.0472
F    5.6321    1.7427    0.1586
C    6.3562   -0.4996   -0.0756
C    6.0581   -1.8355   -0.2867
F    7.0506   -2.7517   -0.3146
C    4.7448   -2.2337   -0.4687
C    3.7268   -1.2998   -0.4354
C    0.8676    2.8976   -0.3891
C   -0.2053    3.7689   -0.4567
C   -1.4669    3.3231   -0.1063
N   -1.6675    2.0800    0.2867
C   -2.6480   -0.7319    2.2862
C   -3.9633   -1.0921    2.5050
C   -4.8562   -1.1285    1.4496
H   -2.7883   -0.2062   -1.0509
H    3.1800    1.9160   -0.4187
H    7.3814   -0.1911    0.0664
H    4.5151   -3.2761   -0.6331
H    2.7026   -1.6118   -0.5776
H    1.8621    3.2224   -0.6571
H   -0.0587    4.7889   -0.7800
H   -2.3035    4.0040   -0.1591
H   -1.9520   -0.6997    3.1114
H   -4.2958   -1.3413    3.5019
H   -5.8843   -1.4104    1.6228


