%nprocshared=4
%mem=100MW
%chk=WYKYKTKDBLFHCY-UHFFFAOYSA-N.chk
#b3lyp/6-31+G(d) opt freq

gas opt

0 1
Cl   -3.0663   -1.5057   -0.2187
C   -1.8981   -0.2339   -0.0412
C   -0.5257   -0.5193   -0.0720
O   -0.1403   -1.6683   -0.2247
N    0.3654    0.4819    0.0676
C    1.7358    0.2001    0.0369
C    2.6086    1.0597   -0.6178
C    3.9605    0.7790   -0.6458
C    4.4455   -0.3567   -0.0234
C    3.5792   -1.2146    0.6293
C    2.2269   -0.9367    0.6660
N   -0.0677    1.8003    0.2425
C   -1.3384    2.0916    0.2746
C   -2.3075    1.0769    0.1269
N   -3.6567    1.3887    0.1608
H    2.2304    1.9465   -1.1047
H    4.6397    1.4469   -1.1547
H    5.5030   -0.5743   -0.0474
H    3.9611   -2.1009    1.1141
H    1.5509   -1.6070    1.1762
H   -1.6508    3.1165    0.4107
H   -3.9390    2.3082    0.2866
H   -4.3193    0.6877    0.0588


