%nprocshared=4
%mem=100MW
%chk=WYMSBXTXOHUIGT-UHFFFAOYSA-N.chk
#b3lyp/6-31+G(d) opt freq

gas opt

0 1
P    1.7893    0.3914    0.1201
O    1.4215    1.2765    1.2478
O    3.2920    0.7224   -0.3538
C    4.4104    0.7040    0.5356
C    5.6817    1.0631   -0.2363
O    1.7019   -1.1450    0.5931
C    1.9986   -2.2436   -0.2713
C    1.8166   -3.5569    0.4922
O    0.7743    0.6341   -1.1058
C   -0.5357    0.4847   -0.7766
C   -1.2676    1.5739   -0.3262
C   -2.5992    1.4195    0.0073
C   -3.2026    0.1807   -0.1070
N   -4.6295    0.0181    0.2510
O   -5.2711    0.9751    0.6460
O   -5.1621   -1.0727    0.1507
C   -2.4754   -0.9063   -0.5556
C   -1.1450   -0.7559   -0.8959
H    4.2523    1.4300    1.3332
H    4.5158   -0.2917    0.9662
H    6.5348    1.0491    0.4421
H    5.8398    0.3371   -1.0338
H    5.5763    2.0588   -0.6669
H    1.3244   -2.2246   -1.1275
H    3.0289   -2.1648   -0.6183
H    2.4909   -3.5759    1.3484
H    0.7864   -3.6356    0.8393
H    2.0430   -4.3948   -0.1671
H   -0.7965    2.5415   -0.2361
H   -3.1694    2.2671    0.3580
H   -2.9489   -1.8730   -0.6437
H   -0.5774   -1.6053   -1.2463


