%nprocshared=4
%mem=100MW
%chk=WZJZMXBKUWKXTQ-UHFFFAOYSA-N.chk
#b3lyp/6-31+G(d) opt freq

gas opt

0 1
O    3.0860    0.7112    0.9589
C    3.7072    0.5394   -0.0712
O    4.7659    1.3206   -0.3572
C    5.1079    2.3476    0.6106
C    6.3279    3.1278    0.1169
N    3.3398   -0.4367   -0.9249
C    2.3068   -1.3156   -0.5802
C    1.2200   -0.8576    0.1515
C    0.1989   -1.7309    0.4911
O   -0.8671   -1.2853    1.2072
C   -1.7908   -0.5637    0.5439
O   -1.6061   -0.2617   -0.6186
N   -2.9202   -0.1766    1.1694
C   -3.9215    0.4915    0.4557
C   -5.2585    0.2629    0.7532
C   -6.2444    0.9241    0.0473
C   -5.9013    1.8127   -0.9551
C   -4.5709    2.0426   -1.2538
C   -3.5802    1.3888   -0.5477
C    0.2652   -3.0607    0.0991
C    1.3481   -3.5150   -0.6289
C    2.3650   -2.6459   -0.9747
H    4.2653    3.0286    0.7307
H    5.3379    1.8817    1.5688
H    7.1704    2.4467   -0.0032
H    6.0978    3.5936   -0.8413
H    6.5846    3.8987    0.8434
H    3.7915   -0.5300   -1.7783
H    1.1703    0.1774    0.4560
H   -3.0389   -0.3611    2.1142
H   -5.5272   -0.4316    1.5355
H   -7.2844    0.7468    0.2783
H   -6.6741    2.3281   -1.5061
H   -4.3061    2.7369   -2.0375
H   -2.5412    1.5687   -0.7815
H   -0.5306   -3.7412    0.3637
H    1.3975   -4.5504   -0.9321
H    3.2104   -3.0035   -1.5437


