%nprocshared=4
%mem=100MW
%chk=WZWYJBNHTWCXIM-JLHYYAGUSA-N.chk
#b3lyp/6-31+G(d) opt freq

gas opt

0 1
O    1.9024    2.7021   -0.8867
S    1.7246    1.7476    0.1509
O    1.8143    2.0621    1.5338
N    0.2346    1.0383   -0.0908
C   -0.8558    1.7897   -0.7173
C    0.0425   -0.3011    0.3191
C   -1.1987   -0.6831    0.7381
O   -1.4472   -1.9818    1.0192
N   -2.1969    0.2533    0.8745
C   -3.4259    0.0560    0.2518
N   -4.4202    0.9004    0.4801
C   -5.6002    0.7499   -0.0899
C   -5.8417   -0.3024   -0.9512
C   -4.8256   -1.2101   -1.2171
C   -3.5970   -1.0228   -0.6088
C    1.0737   -1.2572    0.3137
O    0.8218   -2.4132    0.6162
C    2.4497   -0.8888   -0.0504
S    3.7933   -1.9534   -0.4101
C    4.8351   -0.6297   -0.6836
C    4.1935    0.5310   -0.5098
C    2.8749    0.4276   -0.1562
H   -0.4435    2.4941   -1.4398
H   -1.5277    1.0987   -1.2264
H   -1.4076    2.3355    0.0480
H   -2.3605   -2.1594    1.2827
H   -2.0443    1.0512    1.4046
H   -6.3878    1.4585    0.1199
H   -6.8112   -0.4181   -1.4127
H   -4.9892   -2.0414   -1.8869
H   -2.7845   -1.7099   -0.7934
H    5.8755   -0.7175   -0.9599
H    4.6825    1.4855   -0.6372


