%nprocshared=4
%mem=100MW
%chk=XADCESSVHJOZHK-UHFFFAOYSA-N.chk
#b3lyp/6-31+G(d) opt freq

gas opt

0 1
O    1.0206    1.0636   -1.5783
C    0.3812    0.9150   -0.5640
O   -0.1392    1.9813    0.0636
C    0.1061    3.2821   -0.5331
C   -0.5596    4.3666    0.3163
C    0.1628   -0.4681   -0.0068
C   -1.3145   -0.7599    0.0518
C   -2.1476    0.0405    0.8108
C   -3.5027   -0.2272    0.8646
C   -4.0248   -1.2951    0.1589
C   -3.1918   -2.0949   -0.6009
C   -1.8374   -1.8246   -0.6581
C    0.8524   -1.4971   -0.9068
C    2.3596   -1.2317   -0.9150
N    2.8817   -1.3246    0.4543
C    4.3464   -1.2125    0.4680
C    2.2685   -0.3145    1.3261
C    0.7572   -0.5520    1.4019
H    1.1798    3.4642   -0.5786
H   -0.3091    3.3037   -1.5407
H   -0.1444    4.3449    1.3239
H   -0.3754    5.3431   -0.1317
H   -1.6333    4.1844    0.3618
H   -1.7397    0.8748    1.3622
H   -4.1535    0.3977    1.4582
H   -5.0834   -1.5047    0.2014
H   -3.5997   -2.9295   -1.1520
H   -1.1866   -2.4495   -1.2517
H    0.6616   -2.5002   -0.5252
H    0.4625   -1.4127   -1.9212
H    2.8552   -1.9715   -1.5437
H    2.5504   -0.2337   -1.3096
H    4.6412   -0.2518    0.0459
H    4.7067   -1.2845    1.4942
H    4.7780   -2.0181   -0.1260
H    2.6979   -0.3881    2.3252
H    2.4598    0.6792    0.9210
H    0.3008    0.2076    2.0366
H    0.5646   -1.5401    1.8199


