%nprocshared=4
%mem=100MW
%chk=XBCXJKGHPABGSD-UHFFFAOYSA-N.chk
#b3lyp/6-31+G(d) opt freq

gas opt

0 1
O    1.4335   -1.6980    0.0010
C    0.6419   -0.7752    0.0011
N    1.0985    0.4904    0.0003
C    2.5419    0.7410   -0.0001
C    0.2274    1.5456   -0.0005
C   -1.1029    1.3145   -0.0001
C   -1.5699   -0.0220    0.0011
O   -2.7651   -0.2554    0.0011
N   -0.6790   -1.0341   -0.0036
H   -0.9912   -1.9525   -0.0031
H    2.8997    0.8026   -1.0279
H    2.7477    1.6803    0.5132
H    3.0522   -0.0734    0.5141
H    0.6021    2.5585   -0.0012
H   -1.8014    2.1382   -0.0005


