%nprocshared=4
%mem=100MW
%chk=XDLPWPNVUPKKSN-UHFFFAOYSA-N.chk
#b3lyp/6-31+G(d) opt freq

gas opt

0 1
F    1.6082   -3.6097   -0.0489
C    0.9459   -2.4326   -0.0156
C    1.6614   -1.2328    0.0263
N    3.0539   -1.2588    0.0340
C    3.6041   -0.4270   -1.0525
C    4.6643    0.0701   -0.0598
N    4.9630    1.5044   -0.1669
C    6.3136    1.7995    0.3298
C    3.5957   -0.2729    0.9876
C    0.9968   -0.0178    0.0598
C   -0.3930    0.0102    0.0522
N   -1.0688    1.2119    0.0856
C   -0.2915    2.4530    0.1287
C   -0.5758    3.5022   -0.9480
C   -1.0350    3.7399    0.4920
C   -2.4059    1.2922    0.0800
C   -3.2090    0.1709    0.0405
C   -4.6727    0.3007    0.0351
O   -5.1853    1.4026    0.0657
O   -5.4471   -0.8021   -0.0036
C   -2.5756   -1.1578    0.0033
O   -3.2419   -2.1779   -0.0327
C   -1.1040   -1.2029    0.0104
C   -0.4198   -2.4206   -0.0288
H    4.0190   -1.0077   -1.8763
H    2.9229    0.3550   -1.3881
H    5.5573   -0.5530   -0.0113
H    4.8480    1.8279   -1.1157
H    6.5088    2.8680    0.2390
H    6.3884    1.5041    1.3763
H    7.0458    1.2452   -0.2574
H    2.9123    0.5502    1.1964
H    4.0035   -0.7229    1.8927
H    1.5568    0.9051    0.0921
H    0.7376    2.3515    0.4733
H    0.2663    4.0913   -1.3114
H   -1.3411    3.2691   -1.6883
H   -2.1024    3.6632    0.6990
H   -0.4951    4.4853    1.0759
H   -2.8706    2.2667    0.1076
H   -6.4045   -0.6664   -0.0056
H   -0.9693   -3.3496   -0.0654


