%nprocshared=4
%mem=100MW
%chk=XEKOWRVHYACXOJ-UHFFFAOYSA-N.chk
#b3lyp/6-31+G(d) opt freq

gas opt

0 1
O   -1.1325   -1.2342   -0.0002
C   -0.9910   -0.0342    0.0019
O    0.2420    0.4962    0.0019
C    1.3588   -0.4318   -0.0009
C    2.6729    0.3517   -0.0006
C   -2.1989    0.8669   -0.0015
H    1.3107   -1.0609    0.8879
H    1.3091   -1.0575   -0.8921
H    2.7211    0.9809   -0.8894
H    2.7227    0.9774    0.8905
H    3.5113   -0.3449   -0.0027
H   -2.4941    1.0828    1.0253
H   -1.9560    1.7982   -0.5131
H   -3.0203    0.3715   -0.5192


