%nprocshared=4
%mem=100MW
%chk=XEROSHXMTSNDBW-UHFFFAOYSA-N.chk
#b3lyp/6-31+G(d) opt freq

gas opt

0 1
S   -3.0796   -0.2191   -0.0764
O   -3.3286   -1.5034   -0.6312
O   -3.6601    0.9736   -0.5862
N   -3.5151   -0.3063    1.5189
C   -1.3341    0.0155   -0.1285
S   -0.5209    1.5719   -0.1320
C    1.0579    0.7898   -0.1943
C    2.3695    1.5385   -0.2343
O    2.2783    2.6832    0.6162
C    3.5307    0.6690    0.2270
C    3.6422   -0.5685   -0.6721
S    2.2677   -1.6843   -0.2559
O    2.3885   -2.1002    1.0975
C    0.8995   -0.5480   -0.2049
C   -0.4317   -0.9570   -0.1653
H   -3.9475   -1.1045    1.8606
H   -3.3378    0.4407    2.1116
H    2.5586    1.8692   -1.2555
H    1.5821    3.3054    0.3650
H    4.4565    1.2417    0.1716
H    3.3613    0.3546    1.2568
H    3.5728   -0.2718   -1.7187
H    4.5927   -1.0709   -0.4924
H   -0.7119   -2.0000   -0.1679


