%nprocshared=4
%mem=100MW
%chk=XFOHWECQTFIEIX-UHFFFAOYSA-N.chk
#b3lyp/6-31+G(d) opt freq

gas opt

0 1
O    4.2442   -1.2228    0.0005
N    3.7879   -0.0935    0.0005
O    4.5377    0.8663   -0.0043
C    2.3221    0.1125    0.0003
C    1.4710   -0.9788    0.0001
C    0.1056   -0.7891   -0.0001
C   -0.4246    0.4984   -0.0000
C   -1.9065    0.4225    0.0002
C   -2.3023   -0.9125    0.0003
C   -3.6412   -1.2407    0.0001
C   -4.5994   -0.2421   -0.0006
C   -4.2160    1.0867   -0.0012
C   -2.8783    1.4244   -0.0003
C   -1.0519   -1.7573    0.0001
C    0.4398    1.5944   -0.0006
C    1.8050    1.3951    0.0061
H    1.8768   -1.9797   -0.0003
H   -3.9426   -2.2778    0.0002
H   -5.6479   -0.5009   -0.0011
H   -4.9668    1.8631   -0.0024
H   -2.5833    2.4633   -0.0007
H   -1.0202   -2.3804   -0.8937
H   -1.0199   -2.3804    0.8939
H    0.0402    2.5977   -0.0009
H    2.4725    2.2442    0.0057


