%nprocshared=4
%mem=100MW
%chk=XITQUSLLOSKDTB-UHFFFAOYSA-N.chk
#b3lyp/6-31+G(d) opt freq

gas opt

0 1
Cl   -2.7872   -2.7370    0.0041
C   -2.4863   -1.0273    0.0004
C   -1.1818   -0.5511   -0.0069
O   -0.1390   -1.4230   -0.0115
C    1.1200   -0.9118   -0.0074
C    1.7630   -0.6578    1.1957
C    3.0429   -0.1381    1.1971
C    3.6830    0.1295    0.0010
N    5.0545    0.6864    0.0055
O    5.6181    0.9086    1.0621
O    5.6193    0.9225   -1.0475
C    3.0444   -0.1227   -1.1992
C    1.7669   -0.6482   -1.2063
C   -0.9446    0.8153   -0.0098
C   -2.0059    1.7001   -0.0056
C   -3.3049    1.2243    0.0016
Cl   -4.6361    2.3387    0.0069
C   -3.5448   -0.1387   -0.0012
H    1.2632   -0.8660    2.1302
H    3.5439    0.0598    2.1332
H    3.5465    0.0876   -2.1321
H    1.2686   -0.8450   -2.1440
H    0.0692    1.1876   -0.0151
H   -1.8212    2.7642   -0.0075
H   -4.5597   -0.5081    0.0044


