%nprocshared=4
%mem=100MW
%chk=XIURVHNZVLADCM-IUODEOHRSA-N.chk
#b3lyp/6-31+G(d) opt freq

gas opt

0 1
O   -3.5602    0.7071    0.8139
C   -2.9438   -0.0825    0.1302
N   -1.6105   -0.2082    0.2821
C   -0.9059    0.6089    1.2731
H   -1.5533    0.9277    2.0899
C   -0.1146    1.7428    0.6596
O   -0.3730    2.8401    0.2120
N    0.9965    1.0098    0.8254
C    2.3074    0.9900    0.3090
C    3.0043   -0.1348    0.2988
C    4.3731   -0.0527   -0.3261
O    4.9654   -1.3777   -0.3698
C    6.2319   -1.4650   -0.8057
O    6.7955   -0.4821   -1.2254
C    6.9510   -2.7890   -0.7717
C    2.6099   -1.4751    0.8268
S    0.8076   -1.6315    1.0140
C    0.3979   -0.0126    1.7470
H    0.6312    0.0829    2.8075
C    2.9052    2.2281   -0.2226
O    2.2337    3.2367   -0.3134
O    4.1966    2.2414   -0.6081
C   -3.6695   -0.9275   -0.8848
C   -5.1403   -0.6010   -0.8508
S   -6.3330   -1.3995    0.1658
C   -7.6122   -0.3827   -0.4848
C   -7.1008    0.4588   -1.3845
C   -5.7358    0.3417   -1.5829
H   -1.1175   -0.8398   -0.2647
H    4.2872    0.3405   -1.3390
H    5.0046    0.6081    0.2678
H    6.2613   -3.5688   -0.4488
H    7.3254   -3.0248   -1.7678
H    7.7863   -2.7310   -0.0739
H    2.9628   -2.2443    0.1400
H    3.0813   -1.6260    1.7979
H    4.5649    3.0932   -0.8799
H   -3.2742   -0.7204   -1.8793
H   -3.5259   -1.9820   -0.6491
H   -8.6527   -0.4323   -0.1996
H   -7.7052    1.1796   -1.9152
H   -5.1952    0.9619   -2.2825


