%nprocshared=4
%mem=100MW
%chk=XJKSTNDFUHDPQJ-UHFFFAOYSA-N.chk
#b3lyp/6-31+G(d) opt freq

gas opt

0 1
C   -1.3860    0.0005   -0.0006
C   -2.8691    0.0005   -0.0011
C   -3.5684   -0.9258   -0.7728
C   -4.9485   -0.9215   -0.7690
C   -5.6377   -0.0001   -0.0012
C   -4.9489    0.9219    0.7663
C   -3.5689    0.9231    0.7747
C   -0.6888    1.2082    0.0010
C    0.6887    1.2082    0.0014
C    1.3860    0.0006    0.0006
C    2.8691    0.0006    0.0005
C    3.5687   -0.9271    0.7703
C    4.9488   -0.9228    0.7659
C    5.6377   -0.0000   -0.0005
C    4.9486    0.9233   -0.7661
C    3.5686    0.9246   -0.7739
C    0.6888   -1.2071    0.0003
C   -0.6888   -1.2071    0.0040
H   -3.0313   -1.6454   -1.3729
H   -5.4914   -1.6385   -1.3668
H   -6.7177   -0.0003   -0.0012
H   -5.4922    1.6394    1.3634
H   -3.0321    1.6432    1.3746
H   -1.2288    2.1435    0.0016
H    1.2287    2.1435    0.0019
H    3.0318   -1.6478    1.3693
H    5.4919   -1.6409    1.3623
H    6.7177   -0.0003   -0.0008
H    5.4917    1.6419   -1.3620
H    3.0316    1.6457   -1.3723
H    1.2288   -2.1424    0.0000
H   -1.2288   -2.1424    0.0038


