%nprocshared=4
%mem=100MW
%chk=XKEFYDZQGKAQCN-UHFFFAOYSA-N.chk
#b3lyp/6-31+G(d) opt freq

gas opt

0 1
Cl   -3.1149   -0.1670   -0.0006
C   -1.3814   -0.0741   -0.0007
C   -0.7548    1.1593   -0.0000
C    0.6266    1.2334   -0.0002
Cl    1.4128    2.7811    0.0001
C    1.3814    0.0741   -0.0000
C    0.7548   -1.1593   -0.0002
Cl    1.7021   -2.6141   -0.0007
C   -0.6266   -1.2334    0.0043
H   -1.3441    2.0643    0.0002
H    2.4598    0.1319   -0.0001
H   -1.1157   -2.1962    0.0042


