%nprocshared=4
%mem=100MW
%chk=XNLICIUVMPYHGG-UHFFFAOYSA-N.chk
#b3lyp/6-31+G(d) opt freq

gas opt

0 1
O   -1.1190   -1.2427   -0.0000
C   -1.0524   -0.0369    0.0020
C    0.2923    0.6434    0.0020
C    1.3986   -0.4135   -0.0008
C    2.7638    0.2772   -0.0008
C   -2.3139    0.7874   -0.0017
H    0.3838    1.2675   -0.8870
H    0.3854    1.2643    0.8930
H    1.3072   -1.0376    0.8882
H    1.3056   -1.0345   -0.8918
H    2.8553    0.9013   -0.8898
H    2.8569    0.8981    0.8902
H    3.5520   -0.4758   -0.0028
H   -2.6220    0.9847    1.0250
H   -2.1292    1.7320   -0.5134
H   -3.1029    0.2420   -0.5194


