%nprocshared=4
%mem=100MW
%chk=XQUXKZZNEFRCAW-UHFFFAOYSA-N.chk
#b3lyp/6-31+G(d) opt freq

gas opt

0 1
O   -2.0466   -1.8346    0.3342
C   -2.3911   -0.6837    0.4632
O   -1.5755    0.3087    0.0740
C   -0.2951   -0.0745   -0.4934
C   -0.4317   -0.2325   -1.9505
N   -0.5370   -0.3545   -3.0750
C    0.7255    0.9941   -0.1975
C    2.0392    0.6444    0.0491
C    2.9783    1.6287    0.3210
O    4.2711    1.2875    0.5635
C    4.6271   -0.0147    0.4084
C    4.8023   -0.5406   -0.8636
C    5.1641   -1.8647   -1.0185
C    5.3517   -2.6659    0.0927
C    5.1773   -2.1445    1.3614
C    4.8215   -0.8194    1.5220
C    2.5953    2.9624    0.3446
C    1.2807    3.3065    0.0974
C    0.3476    2.3238   -0.1786
C   -3.7392   -0.3627    1.0555
C   -4.6992    0.4786    0.2121
C   -5.6080    1.4647    0.9486
C   -4.2169    0.9301   -1.1680
C   -4.9659   -1.0143    0.4142
C   -4.7302   -1.9420   -0.7794
C   -6.1211   -1.4069    1.3374
H    0.0290   -1.0181   -0.0544
H    2.3347   -0.3942    0.0305
H    4.6555    0.0847   -1.7319
H    5.3002   -2.2746   -2.0084
H    5.6345   -3.7009   -0.0305
H    5.3237   -2.7726    2.2277
H    4.6858   -0.4125    2.5131
H    3.3244    3.7304    0.5564
H    0.9821    4.3442    0.1156
H   -0.6797    2.5950   -0.3720
H   -3.7548   -0.2134    2.1352
H   -5.3043    2.4846    0.7128
H   -6.6405    1.3113    0.6347
H   -5.5268    1.3007    2.0232
H   -3.2412    0.4900   -1.3738
H   -4.9293    0.6049   -1.9261
H   -4.1366    2.0170   -1.1872
H   -3.6878   -1.8753   -1.0912
H   -4.9586   -2.9685   -0.4925
H   -5.3762   -1.6432   -1.6050
H   -7.0531   -0.9981    0.9472
H   -6.1935   -2.4934    1.3869
H   -5.9397   -1.0090    2.3358


