%nprocshared=4
%mem=100MW
%chk=XQXPVVBIMDBYFF-UHFFFAOYSA-N.chk
#b3lyp/6-31+G(d) opt freq

gas opt

0 1
O    2.0083    0.0055    1.2998
C    2.5109    0.0024    0.2010
O    3.8472   -0.0029    0.0743
C    1.6375   -0.0017   -1.0270
C    0.1885   -0.0011   -0.6129
C   -0.4756    1.1972   -0.4269
C   -1.8038    1.2005   -0.0468
C   -2.4713   -0.0001    0.1477
O   -3.7780    0.0004    0.5212
C   -1.8028   -1.2011   -0.0401
C   -0.4761   -1.1989   -0.4252
H    4.3656   -0.0041    0.8905
H    1.8452    0.8866   -1.6236
H    1.8461   -0.8933   -1.6183
H    0.0444    2.1316   -0.5784
H   -2.3219    2.1367    0.0991
H   -4.3989   -0.0021   -0.2202
H   -2.3201   -2.1370    0.1111
H    0.0447   -2.1336   -0.5718


