%nprocshared=4
%mem=100MW
%chk=XQZYPMVTSDWCCE-UHFFFAOYSA-N.chk
#b3lyp/6-31+G(d) opt freq

gas opt

0 1
N   -2.2513   -1.9971   -0.0007
C   -1.2697   -1.4253   -0.0009
C   -0.0323   -0.7045   -0.0011
C   -0.0323    0.7045   -0.0005
C   -1.2697    1.4253    0.0003
N   -2.2513    1.9971    0.0009
C    1.1801    1.3921   -0.0002
C    2.3706    0.6922   -0.0005
C    2.3706   -0.6922   -0.0015
C    1.1801   -1.3921    0.0040
H    1.1886    2.4720   -0.0001
H    3.3080    1.2285   -0.0002
H    3.3080   -1.2285   -0.0024
H    1.1885   -2.4720    0.0036


