%nprocshared=4
%mem=100MW
%chk=XRECTZIEBJDKEO-UHFFFAOYSA-N.chk
#b3lyp/6-31+G(d) opt freq

gas opt

0 1
F   -2.3628   -0.8394   -0.0013
C   -1.0461   -0.5371   -0.0011
C   -0.6247    0.7860   -0.0002
N   -1.5382    1.8100    0.0010
N    0.7154    1.0497    0.0000
H    1.0294    1.9674    0.0010
C    1.5999    0.0351   -0.0007
O    2.7947    0.2826   -0.0001
N    1.1958   -1.2329   -0.0015
C   -0.0902   -1.5435    0.0041
H   -2.4879    1.6128    0.0012
H   -1.2341    2.7311    0.0016
H   -0.3960   -2.5793    0.0033


