%nprocshared=4
%mem=100MW
%chk=XRHGWAGWAHHFLF-UHFFFAOYSA-N.chk
#b3lyp/6-31+G(d) opt freq

gas opt

0 1
Cl    3.4847   -2.2035   -0.6622
C    2.2935   -1.1585    0.0467
N    2.4659    0.1384    0.3565
C    3.6816    0.9325    0.1624
C    3.3788    2.1100   -0.7664
C    4.1671    1.4606    1.5138
N    1.2504    0.5818    0.9024
C    0.4341   -0.4433    0.8924
O   -0.8495   -0.4360    1.3377
P   -1.9317   -0.0502    0.2098
S   -1.5482   -0.9757   -1.3615
O   -3.4053   -0.4488    0.7214
C   -4.5364   -0.5272   -0.1484
C   -5.7729   -0.9296    0.6579
O   -1.8716    1.5338   -0.0720
C   -0.8226    2.1520   -0.8200
C   -1.0718    3.6596   -0.8977
N    1.0686   -1.4951    0.3675
H    4.4561    0.3082   -0.2832
H    2.6043    2.7344   -0.3208
H    4.2833    2.7008   -0.9108
H    3.0329    1.7338   -1.7292
H    4.3828    0.6217    2.1754
H    5.0716    2.0514    1.3693
H    3.3926    2.0849    1.9594
H   -4.7057    0.4444   -0.6126
H   -4.3489   -1.2718   -0.9221
H   -6.6356   -0.9893   -0.0056
H   -5.6035   -1.9011    1.1221
H   -5.9603   -0.1850    1.4315
H    0.1323    1.9664   -0.3283
H   -0.7999    1.7351   -1.8269
H   -1.0945    4.0765    0.1092
H   -0.2716    4.1311   -1.4682
H   -2.0267    3.8451   -1.3894


