%nprocshared=4
%mem=100MW
%chk=XSKQKDTZQNFCCB-UHFFFAOYSA-N.chk
#b3lyp/6-31+G(d) opt freq

gas opt

0 1
O    2.2491   -2.4687    0.0172
N    2.1664   -1.2535    0.0185
O    3.1772   -0.5743    0.0401
C    0.8377   -0.6022   -0.0123
C    0.7455    0.7772   -0.0107
C    1.9980    1.6145    0.0223
O    1.6456    2.9993    0.0174
C   -0.4932    1.3901   -0.0399
C   -1.6462    0.6224   -0.0703
O   -2.9654    0.9715   -0.1025
C   -3.6859   -0.2121    0.2889
O   -2.8143   -1.2886   -0.1042
C   -1.5533   -0.7671   -0.0713
C   -0.3083   -1.3745   -0.0482
H    2.5636    1.3866    0.9258
H    2.6073    1.3915   -0.8537
H    2.4044    3.5984    0.0377
H   -0.5623    2.4679   -0.0386
H   -3.8468   -0.2236    1.3669
H   -4.6359   -0.2751   -0.2418
H   -0.2331   -2.4519   -0.0558


