%nprocshared=4
%mem=100MW
%chk=XSQUKJJJFZCRTK-UHFFFAOYSA-N.chk
#b3lyp/6-31+G(d) opt freq

gas opt

0 1
O   -0.0000   -1.2679   -0.0002
C    0.0000   -0.0520    0.0015
N    1.1672    0.6219   -0.0004
N   -1.1672    0.6219   -0.0004
H    2.0072    0.1369   -0.0031
H    1.1672    1.5919    0.0010
H   -2.0072    0.1369   -0.0031
H   -1.1672    1.5919    0.0010


