%nprocshared=4
%mem=100MW
%chk=XTRDKALNCIHHNI-UHFFFAOYSA-N.chk
#b3lyp/6-31+G(d) opt freq

gas opt

0 1
O   -3.5303   -0.2216   -0.1184
N   -2.4790    0.3839   -0.0108
O   -2.4827    1.5979    0.0876
C   -1.1971   -0.3560    0.0067
C    0.0000    0.3349   -0.0090
C    0.0001    1.8415   -0.0437
C    1.1972   -0.3561    0.0077
N    2.4791    0.3837   -0.0085
O    3.5301   -0.2215   -0.1206
O    2.4829    1.5977    0.0901
C    1.1971   -1.7381    0.0401
C   -0.0001   -2.4290    0.0553
C   -1.1972   -1.7379    0.0443
H    0.0010    2.2285    0.9753
H    0.8897    2.1928   -0.5665
H   -0.8903    2.1929   -0.5651
H    2.1324   -2.2780    0.0531
H   -0.0002   -3.5088    0.0802
H   -2.1326   -2.2777    0.0562


