%nprocshared=4
%mem=100MW
%chk=XUCIJNAGGSZNQT-UHFFFAOYSA-N.chk
#b3lyp/6-31+G(d) opt freq

gas opt

0 1
O   -3.3651    0.4164    0.0572
C   -3.1735   -0.9790   -0.1840
C   -2.3260   -1.5484    0.8764
N   -1.6720   -1.9878    1.6947
C   -4.5095   -1.6761   -0.1880
C   -4.7304   -2.7419   -1.0402
C   -5.9559   -3.3814   -1.0439
C   -6.9604   -2.9554   -0.1951
C   -6.7392   -1.8902    0.6577
C   -5.5122   -1.2535    0.6645
C   -2.3786    1.2523   -0.5512
C   -2.7499    2.7215   -0.3340
O   -2.8611    2.9840    1.0663
C   -1.6576    3.6106   -0.9362
O   -1.9592    4.9825   -0.6738
C   -0.3123    3.2506   -0.2984
O   -0.3589    3.5270    1.1028
C   -0.0351    1.7609   -0.5170
C    1.2784    1.3803    0.1691
O    1.5963    0.0200   -0.1320
C    2.8117   -0.4384    0.4637
C    2.9876   -1.9325    0.1798
O    2.9852   -2.1538   -1.2320
C    4.3208   -2.4028    0.7694
O    4.5277   -3.7792    0.4457
C    5.4544   -1.5608    0.1758
O    5.5174   -1.7723   -1.2361
C    5.1832   -0.0811    0.4599
C    6.2800    0.7710   -0.1818
O    6.0923    2.1406    0.1803
O    3.9147    0.2831   -0.0883
O   -1.1036    0.9922    0.0394
H   -2.6885   -1.1174   -1.1503
H   -3.9456   -3.0748   -1.7033
H   -6.1288   -4.2136   -1.7102
H   -7.9181   -3.4546   -0.1985
H   -7.5241   -1.5572    1.3206
H   -5.3394   -0.4212    1.3308
H   -2.3338    1.0429   -1.6200
H   -3.7021    2.9324   -0.8209
H   -3.5324    2.4512    1.5142
H   -1.6073    3.4478   -2.0128
H   -2.8025    5.2776   -1.0437
H    0.4793    3.8409   -0.7600
H   -0.5360    4.4536    1.3152
H    0.0408    1.5582   -1.5853
H    2.0775    2.0283   -0.1909
H    1.1727    1.4986    1.2474
H    2.7727   -0.2752    1.5407
H    2.1695   -2.4890    0.6371
H    2.1712   -1.8740   -1.6726
H    4.3035   -2.2815    1.8525
H    3.8419   -4.3704    0.7852
H    6.4012   -1.8523    0.6303
H    5.6822   -2.6909   -1.4892
H    5.1757    0.0868    1.5368
H    7.2549    0.4328    0.1691
H    6.2296    0.6717   -1.2661
H    6.7533    2.7400   -0.1922


