%nprocshared=4
%mem=100MW
%chk=XUFQPHANEAPEMJ-UHFFFAOYSA-N.chk
#b3lyp/6-31+G(d) opt freq

gas opt

0 1
S    5.7254    0.1161    0.5166
O    6.0835   -1.1155    1.1284
O    6.3802    0.6314   -0.6345
N    4.1205   -0.0047    0.1268
C    3.7356   -0.8488   -0.7743
N    4.6557   -1.6430   -1.4064
C    2.2751   -0.9587   -1.1289
C    1.4693    0.0305   -0.2844
S   -0.2887   -0.1018   -0.7113
C   -1.0659    1.1260    0.3745
C   -2.5538    1.1376    0.1357
N   -3.3767    0.3628    0.8130
C   -4.6464    0.4558    0.5230
N   -5.6445   -0.2570    1.1100
C   -6.0730   -1.3701    0.5538
N   -5.4405   -1.8700   -0.5548
N   -7.1518   -2.0296    1.0832
S   -4.8580    1.6542   -0.7508
C   -3.1185    1.9363   -0.7697
N    5.8590    1.2773    1.6896
H    5.5958   -1.5723   -1.1781
H    4.3670   -2.2761   -2.0823
H    2.1395   -0.7288   -2.1858
H    1.9283   -1.9728   -0.9303
H    1.6049   -0.1994    0.7724
H    1.8162    1.0446   -0.4830
H   -0.8669    0.8687    1.4149
H   -0.6556    2.1127    0.1594
H   -4.6326   -1.4464   -0.8846
H   -5.8008   -2.6474   -1.0095
H   -7.5994   -1.6759    1.8677
H   -7.4676   -2.8501    0.6732
H   -2.5982    2.6337   -1.4095
H    5.9978    2.2044    1.4407
H    5.7984    1.0303    2.6257


