%nprocshared=4
%mem=100MW
%chk=XUYPXLNMDZIRQH-UHFFFAOYSA-N.chk
#b3lyp/6-31+G(d) opt freq

gas opt

0 1
S    3.4055   -0.2686   -0.2692
C    1.7374    0.2078    0.2607
C    0.7368   -0.8620   -0.1811
C   -0.6702   -0.4602    0.2658
N   -1.0746    0.7615   -0.4343
C   -1.9961    1.5784    0.1134
O   -2.4905    1.3022    1.1859
C   -2.4122    2.8351   -0.6068
C   -1.6368   -1.5694   -0.0602
O   -2.5680   -1.3609   -0.8013
O   -1.4632   -2.7891    0.4728
C    4.4321    1.0992    0.3356
H    1.7138    0.3011    1.3465
H    1.4714    1.1631   -0.1919
H    0.7604   -0.9553   -1.2669
H    1.0029   -1.8173    0.2715
H   -0.6724   -0.2805    1.3409
H   -0.6792    0.9824   -1.2921
H   -1.8650    2.9136   -1.5463
H   -3.4822    2.7992   -0.8115
H   -2.1903    3.7014    0.0163
H   -2.1089   -3.4683    0.2344
H    5.4733    0.9173    0.0695
H    4.0986    2.0322   -0.1189
H    4.3411    1.1702    1.4194


