%nprocshared=4
%mem=100MW
%chk=XWKFPIODWVPXLX-UHFFFAOYSA-N.chk
#b3lyp/6-31+G(d) opt freq

gas opt

0 1
C    2.8568    0.0363    0.0007
C    1.3500    0.0097    0.0010
N    0.6781    1.1445   -0.0003
C   -0.6402    1.1698   -0.0005
C   -1.3698   -0.0042    0.0006
C   -2.8764    0.0337   -0.0002
C   -0.6982   -1.2170    0.0020
C    0.6884   -1.2035   -0.0031
H    3.2203    0.0439    1.0283
H    3.2357   -0.8478   -0.5121
H    3.2043    0.9319   -0.5143
H   -1.1559    2.1187   -0.0013
H   -3.2391    0.0416   -1.0280
H   -3.2622   -0.8462    0.5145
H   -3.2174    0.9332    0.5123
H   -1.2420   -2.1501    0.0032
H    1.2443   -2.1295   -0.0022


