%nprocshared=4
%mem=100MW
%chk=YAPQBXQYLJRXSA-UHFFFAOYSA-N.chk
#b3lyp/6-31+G(d) opt freq

gas opt

0 1
O   -3.1107   -0.6658   -0.0011
C   -1.9051   -0.5068   -0.0010
N   -1.4083    0.7446   -0.0005
C   -2.3183    1.8927   -0.0001
C   -0.0379    0.9482    0.0001
N    0.7367    2.0361    0.0006
C    1.9969    1.6831    0.0005
N    2.0924    0.3392   -0.0000
C    3.3288   -0.4467   -0.0003
C    0.8041   -0.1568   -0.0003
C    0.2405   -1.4509   -0.0009
O    0.9578   -2.4353   -0.0012
N   -1.1021   -1.5848    0.0042
H   -1.4938   -2.4722    0.0041
H   -3.3494    1.5391   -0.0003
H   -2.1414    2.4963    0.8901
H   -2.1413    2.4969   -0.8899
H    2.8338    2.3658    0.0003
H    3.6356   -0.6416    1.0273
H    3.1580   -1.3927   -0.5141
H    4.1128    0.1096   -0.5142


