%nprocshared=4
%mem=100MW
%chk=YASYVMFAVPKPKE-UHFFFAOYSA-N.chk
#b3lyp/6-31+G(d) opt freq

gas opt

0 1
S    1.8145   -1.2677   -0.3523
P    0.1703   -0.0231    0.1400
O    0.1757    0.2489    1.5947
O    0.2882    1.3656   -0.6661
C    1.4470    2.2001   -0.6134
N   -1.2275   -0.7763   -0.2702
C   -2.4103   -0.1695   -0.0481
O   -2.4409    0.9335    0.4551
C   -3.6948   -0.8616   -0.4250
C    3.2277   -0.3742    0.3513
H    1.6894    2.4200    0.4263
H    2.2866    1.6861   -1.0813
H    1.2489    3.1309   -1.1450
H   -1.2031   -1.6586   -0.6727
H   -3.4688   -1.8353   -0.8598
H   -4.3102   -0.9950    0.4647
H   -4.2344   -0.2552   -1.1525
H    3.2766    0.6257   -0.0800
H    3.1079   -0.2982    1.4321
H    4.1476   -0.9131    0.1247


