%nprocshared=4
%mem=100MW
%chk=YBPAYPRLUDCSEY-UHFFFAOYSA-N.chk
#b3lyp/6-31+G(d) opt freq

gas opt

0 1
O    2.0212    0.0057    1.3206
C    2.5314    0.0025    0.2204
N    3.8738   -0.0029    0.1001
C    1.6644   -0.0018   -1.0122
C    0.2133   -0.0012   -0.6057
C   -0.4518    1.1972   -0.4233
C   -1.7819    1.2004   -0.0502
C   -2.4504   -0.0001    0.1411
O   -3.7590    0.0005    0.5077
C   -1.7809   -1.2011   -0.0430
C   -0.4523   -1.1990   -0.4212
H    4.4319   -0.0042    0.8934
H    4.2819   -0.0055   -0.7799
H    1.8752    0.8863   -1.6079
H    1.8761   -0.8936   -1.6022
H    0.0690    2.1315   -0.5723
H   -2.3008    2.1368    0.0929
H   -4.3761   -0.0021   -0.2368
H   -2.2991   -2.1370    0.1057
H    0.0693   -2.1337   -0.5649


