%nprocshared=4
%mem=100MW
%chk=YCMLQMDWSXFTIF-UHFFFAOYSA-N.chk
#b3lyp/6-31+G(d) opt freq

gas opt

0 1
S   -1.4405   -0.2317   -0.0996
O   -1.8449   -1.5938   -0.0878
O   -1.8041    0.6782   -1.1287
N   -1.9796    0.4285    1.3202
C    0.3204   -0.2349   -0.0377
C    1.0132    0.9611   -0.0057
C    0.2623    2.2675   -0.0236
C    2.3945    0.9585    0.0433
C    3.0834   -0.2401    0.0597
C    2.3908   -1.4358    0.0277
C    1.0089   -1.4332   -0.0155
H   -2.5465   -0.0905    1.9120
H   -1.7286    1.3342    1.5601
H    0.0452    2.5759    0.9991
H    0.8703    3.0294   -0.5115
H   -0.6717    2.1423   -0.5714
H    2.9357    1.8928    0.0683
H    4.1627   -0.2421    0.0973
H    2.9290   -2.3720    0.0402
H    0.4677   -2.3675   -0.0405


