%nprocshared=4
%mem=100MW
%chk=YEAICDDXRUOCKJ-UHFFFAOYSA-N.chk
#b3lyp/6-31+G(d) opt freq

gas opt

0 1
S   -0.1065   -1.7569   -0.2693
O    0.3654   -2.9697    0.3015
O   -0.5636   -1.6556   -1.6109
N   -1.3547   -1.2432    0.6901
C   -2.0084   -0.0511    0.4009
N   -1.6338    0.6767   -0.6433
C   -2.2584    1.8099   -0.9154
C   -3.3003    2.2369   -0.1139
N   -3.6770    1.5147    0.9279
C   -3.0624    0.3800    1.2032
C    1.1987   -0.5856   -0.0986
C    2.1552   -0.7572    0.8853
C    3.1796    0.1590    1.0218
C    3.2484    1.2537    0.1695
N    4.2833    2.1819    0.3046
C    2.2859    1.4230   -0.8177
C    1.2674    0.5000   -0.9524
H   -1.6297   -1.7742    1.4538
H   -1.9538    2.4030   -1.7650
H   -3.8080    3.1632   -0.3388
H   -3.3707   -0.2096    2.0539
H    2.1009   -1.6083    1.5478
H    3.9261    0.0246    1.7907
H    4.9550    2.0625    0.9941
H    4.3303    2.9460   -0.2912
H    2.3365    2.2730   -1.4820
H    0.5190    0.6308   -1.7199


