%nprocshared=4
%mem=100MW
%chk=YFBPRJGDJKVWAH-UHFFFAOYSA-N.chk
#b3lyp/6-31+G(d) opt freq

gas opt

0 1
S   -3.5599    0.1935   -0.0208
C   -3.6738    0.5031    1.7629
C   -1.8307   -0.0297   -0.2748
C   -1.2718   -1.2980   -0.1781
C   -2.1444   -2.4837    0.1436
C    0.0834   -1.4716   -0.3773
C    0.8870   -0.3803   -0.6734
O    2.2219   -0.5526   -0.8694
C    3.0467   -0.0633    0.0758
O    2.5882    0.4048    1.0992
N    4.3809   -0.0928   -0.1131
C    5.2782    0.4395    0.9153
C    0.3301    0.8865   -0.7702
C   -1.0259    1.0617   -0.5775
C   -1.6307    2.4380   -0.6833
H   -3.2778   -0.3547    2.3066
H   -3.0952    1.3917    2.0152
H   -4.7168    0.6582    2.0390
H   -2.5211   -2.9194   -0.7818
H   -1.5605   -3.2285    0.6845
H   -2.9828   -2.1610    0.7609
H    0.5181   -2.4574   -0.3021
H    4.7469   -0.4665   -0.9300
H    5.1318   -0.1100    1.8451
H    6.3120    0.3300    0.5875
H    5.0587    1.4946    1.0783
H    0.9566    1.7354   -1.0008
H   -1.9383    2.6215   -1.7127
H   -2.4986    2.5048   -0.0273
H   -0.8925    3.1830   -0.3863


