%nprocshared=4
%mem=100MW
%chk=YGLMVCVJLXREAK-UHFFFAOYSA-N.chk
#b3lyp/6-31+G(d) opt freq

gas opt

0 1
O    2.4791   -0.8264    1.2871
C    2.3103   -0.2631    0.2228
N    3.2613    0.5594   -0.2626
C    4.4983    0.7748    0.4920
C    3.0579    1.2380   -1.5449
N    1.1746   -0.4656   -0.4741
C    0.1436   -1.3644    0.0507
C   -0.8055   -0.5956    1.0199
C   -1.1900    0.7008    0.2448
C   -2.1135    0.2097   -0.9015
C   -2.1949   -1.3342   -0.7038
C   -0.7766   -1.8537   -1.0909
C   -2.1235   -1.4324    0.8607
C   -3.5080    0.8023   -0.6189
C   -3.2259    2.0468    0.2580
C   -2.0686    1.5676    1.1682
H    5.0145   -0.1763    0.6227
H    5.1414    1.4651   -0.0539
H    4.2595    1.1958    1.4686
H    2.5715    2.1985   -1.3746
H    4.0218    1.3993   -2.0276
H    2.4289    0.6211   -2.1868
H    1.0399   -0.0163   -1.3231
H    0.6026   -2.2114    0.5606
H   -0.4342   -0.4511    2.0345
H   -0.3157    1.2352   -0.1268
H   -1.7328    0.4812   -1.8861
H   -3.0334   -1.8327   -1.1902
H   -0.4618   -1.4257   -2.0426
H   -0.7718   -2.9425   -1.1427
H   -1.9986   -2.4605    1.2005
H   -2.9749   -0.9491    1.3399
H   -3.9935    1.0946   -1.5501
H   -4.1237    0.0853   -0.0759
H   -2.9101    2.8894   -0.3572
H   -4.1019    2.3075    0.8519
H   -2.4558    0.9719    1.9948
H   -1.5017    2.4194    1.5439


