%nprocshared=4
%mem=100MW
%chk=YGYNBBAUIYTWBF-UHFFFAOYSA-N.chk
#b3lyp/6-31+G(d) opt freq

gas opt

0 1
C    3.9439    0.4794    0.0007
C    2.4896    0.0843    0.0011
C    1.5322    1.0517    0.0004
C    0.1751    0.6868    0.0003
C   -0.1751   -0.6867    0.0008
C   -1.5321   -1.0517    0.0006
C   -2.4896   -0.0843   -0.0001
C   -3.9439   -0.4794    0.0002
C   -2.1453    1.2661   -0.0006
C   -0.8415    1.6569   -0.0009
C    0.8415   -1.6569    0.0011
C    2.1453   -1.2661   -0.0037
H    4.2945    0.5754    1.0283
H    4.5278   -0.2846   -0.5125
H    4.0611    1.4331   -0.5138
H    1.8139    2.0943    0.0004
H   -1.8138   -2.0943    0.0007
H   -4.2945   -0.5739    1.0279
H   -4.5278    0.2837   -0.5142
H   -4.0611   -1.4339   -0.5129
H   -2.9247    2.0137   -0.0012
H   -0.5897    2.7072   -0.0010
H    0.5896   -2.7071    0.0019
H    2.9247   -2.0137   -0.0035


