%nprocshared=4
%mem=100MW
%chk=YIKYNHJUKRTCJL-UHFFFAOYSA-N.chk
#b3lyp/6-31+G(d) opt freq

gas opt

0 1
O   -2.3989    1.1527    0.2248
C   -1.5231    0.3114    0.0916
C   -0.1723    0.6927   -0.1386
O    0.1723    2.0070   -0.2147
C    0.7631   -0.2720   -0.2799
C    2.1991    0.1145   -0.5238
C    2.9524    0.1443    0.8076
O    0.4305   -1.5681   -0.2056
C   -0.8282   -1.9670    0.0095
C   -1.8238   -1.0715    0.1680
H   -0.5704    2.6156   -0.0999
H    2.6637   -0.6142   -1.1880
H    2.2364    1.1017   -0.9845
H    2.4878    0.8730    1.4717
H    2.9151   -0.8429    1.2683
H    3.9911    0.4238    0.6312
H   -1.0496   -3.0228    0.0615
H   -2.8368   -1.4032    0.3416


