%nprocshared=4
%mem=100MW
%chk=YKGCCFHSXQHWIG-UHFFFAOYSA-N.chk
#b3lyp/6-31+G(d) opt freq

gas opt

0 1
O   -4.5322    0.4462    0.6908
C   -3.5305    0.1884    0.0675
C   -2.4013    1.1815   -0.0472
C   -1.0756    0.5175    0.3510
S    0.2572    1.6759   -0.0847
C    1.6477    0.5672   -0.4597
C    1.5049   -0.7035    0.3696
N    0.3413   -1.4830   -0.0140
C   -0.8762   -0.7895   -0.4051
C   -2.0435   -1.7521   -0.1432
C   -3.3560   -1.1474   -0.6248
C    2.7439   -1.5922    0.2044
C    4.0043   -0.8296    0.6057
C    4.1504    0.3903   -0.3095
C    2.9433    1.3024   -0.1028
H   -2.3339    1.5355   -1.0759
H   -1.8626   -2.6886   -0.6708
H   -4.1839   -1.8089   -0.3699
H    2.6407   -2.4752    0.8351
H    3.9192   -0.5016    1.6416
H    5.0637    0.9293   -0.0577
H    3.0444    2.1823   -0.7381
H   -2.5948    2.0272    0.6128
H   -1.0656    0.3347    1.4255
H    1.6395    0.3152   -1.5202
H    1.4164   -0.4311    1.4213
H    0.5871   -2.1910   -0.6895
H   -0.8361   -0.5786   -1.4738
H   -2.1131   -1.9503    0.9264
H   -3.3202   -0.9966   -1.7037
H    2.8274   -1.9043   -0.8366
H    4.8744   -1.4767    0.4945
H    4.1894    0.0651   -1.3492
H    2.9036    1.6155    0.9405


