%nprocshared=4
%mem=100MW
%chk=YKJYKKNCCRKFSL-UHFFFAOYSA-N.chk
#b3lyp/6-31+G(d) opt freq

gas opt

0 1
O   -4.4993   -1.1278    0.8805
C   -3.8545   -1.3450   -0.1180
O   -2.7111   -0.6770   -0.3371
C   -2.3104    0.2914    0.6678
C   -0.7756    0.4071    0.7166
C   -0.1475   -0.5667   -0.2825
C    1.3524   -0.5343   -0.1403
C    1.9809   -1.3946    0.7410
C    3.3557   -1.3666    0.8735
C    4.1058   -0.4746    0.1211
O    5.4585   -0.4454    0.2493
C    6.1663    0.4986   -0.5569
C    3.4729    0.3873   -0.7628
C    2.0983    0.3518   -0.8955
N   -0.4334    1.7979    0.3478
C   -1.6257    2.6135    0.6935
C   -2.8096    1.7028    0.2821
O   -3.0482    1.7879   -1.1243
C   -4.3310   -2.3705   -1.1142
H   -2.6995    0.0048    1.6448
H   -0.4185    0.1881    1.7229
H   -0.5096   -1.5753   -0.0835
H   -0.4227   -0.2751   -1.2961
H    1.3964   -2.0889    1.3265
H    3.8460   -2.0384    1.5625
H    7.2349    0.4174   -0.3576
H    5.9764    0.2916   -1.6100
H    5.8277    1.5067   -0.3178
H    4.0547    1.0829   -1.3494
H    1.6052    1.0223   -1.5837
H    0.3807    2.1158    0.8520
H   -1.6532    2.8205    1.7633
H   -1.6366    3.5409    0.1208
H   -3.7079    1.9609    0.8430
H   -3.2887    2.6734   -1.4296
H   -5.2666   -2.8080   -0.7661
H   -4.4912   -1.8915   -2.0802
H   -3.5798   -3.1535   -1.2171


