%nprocshared=4
%mem=100MW
%chk=YKYONYBAUNKHLG-UHFFFAOYSA-N.chk
#b3lyp/6-31+G(d) opt freq

gas opt

0 1
O   -1.5710   -1.2753    0.0000
C   -1.5311   -0.0677    0.0019
O   -0.3470    0.5646    0.0021
C    0.8439   -0.2661    0.0000
C    2.0874    0.6253    0.0006
C    3.3423   -0.2500   -0.0016
C   -2.8105    0.7286   -0.0024
H    0.8485   -0.8967    0.8890
H    0.8473   -0.8940   -0.8909
H    2.0828    1.2559   -0.8884
H    2.0839    1.2532    0.8915
H    3.3469   -0.8807    0.8874
H    3.3458   -0.8779   -0.8925
H    4.2282    0.3850   -0.0012
H   -3.1233    0.9191    1.0243
H   -2.6466    1.6768   -0.5142
H   -3.5871    0.1656   -0.5202


