%nprocshared=4
%mem=100MW
%chk=YNAVUWVOSKDBBP-UHFFFAOYSA-N.chk
#b3lyp/6-31+G(d) opt freq

gas opt

0 1
O   -1.3552   -0.0000   -0.2324
C   -0.7202   -1.1976    0.2234
C    0.7352   -1.2098   -0.2517
N    1.4142    0.0000    0.2348
C    0.7352    1.2098   -0.2517
C   -0.7202    1.1976    0.2234
H   -0.7478   -1.2325    1.3124
H   -1.2427   -2.0638   -0.1825
H    1.2390   -2.0929    0.1412
H    0.7623   -1.2291   -1.3412
H    1.4754    0.0000    1.2419
H    1.2390    2.0929    0.1412
H    0.7623    1.2291   -1.3412
H   -1.2428    2.0638   -0.1825
H   -0.7478    1.2325    1.3124


