%nprocshared=4
%mem=100MW
%chk=YNBADRVTZLEFNH-UHFFFAOYSA-N.chk
#b3lyp/6-31+G(d) opt freq

gas opt

0 1
O    1.6999   -1.4198    0.0039
C    1.2271   -0.3008    0.0039
O    2.0395    0.7737   -0.0004
C    3.4690    0.5192   -0.0048
C   -0.2388   -0.1185    0.0024
C   -0.7949    1.1621    0.0024
N   -2.1014    1.3245    0.0006
C   -2.9314    0.2986   -0.0012
C   -2.4597   -1.0017   -0.0013
C   -1.0944   -1.2271   -0.0048
H    4.0068    1.4673   -0.0080
H    3.7397   -0.0490    0.8851
H    3.7337   -0.0516   -0.8949
H   -0.1479    2.0269    0.0042
H   -3.9965    0.4772   -0.0022
H   -3.1499   -1.8324   -0.0027
H   -0.6988   -2.2320   -0.0053


