%nprocshared=4
%mem=100MW
%chk=YNDXUCZADRHECN-JNQJZLCISA-N.chk
#b3lyp/6-31+G(d) opt freq

gas opt

0 1
F   -1.7363   -0.7684   -1.2763
C   -1.6579    0.2056   -0.2752
C   -0.8978    1.4151   -0.8102
H   -1.3791    1.7615   -1.7248
O   -0.9402    2.4604    0.1632
C    0.5696    1.0744   -1.1141
C    1.1863    0.5600    0.1745
C    1.0118    1.5853    1.2965
C    2.6512    0.1160    0.0768
C    3.6218    1.2677    0.1269
O    3.3547    2.2550    0.7689
C    4.9258    1.1873   -0.6242
O    5.6669    2.3923   -0.4222
O    2.8178   -0.7084   -1.0868
C    3.3773   -1.9574   -0.6756
C    2.4140   -3.0907   -1.0340
C    4.7126   -2.1779   -1.3892
O    3.5902   -1.9415    0.7388
C    2.7921   -0.8626    1.2845
H    3.2625   -0.4057    2.1552
C    1.3717   -1.3858    1.6014
C    0.4570   -0.7638    0.5274
H    0.4314   -1.4073   -0.3519
C   -0.9696   -0.3945    0.9614
H   -0.9306    0.3383    1.7674
C   -1.7110   -1.6453    1.4371
C   -3.1200   -1.2651    1.9030
C   -3.8105   -0.5329    0.7678
C   -5.0080   -0.9417    0.3734
C   -5.6997   -0.2699   -0.7376
O   -6.8148   -0.6181   -1.0780
C   -5.0117    0.8340   -1.4282
C   -3.8187    1.2298   -1.0130
C   -3.0735    0.6308    0.1256
C   -2.9360    1.7003    1.2111
H   -0.4772    3.2660   -0.1043
H    0.6203    0.3040   -1.8835
H    1.0970    1.9683   -1.4472
H   -0.0309    1.6027    1.6138
H    1.6440    1.3110    2.1410
H    1.2978    2.5727    0.9341
H    5.5044    0.3393   -0.2580
H    4.7252    1.0582   -1.6877
H    6.5197    2.4107   -0.8778
H    2.2519   -3.1026   -2.1118
H    2.8410   -4.0433   -0.7202
H    1.4629   -2.9337   -0.5252
H    5.3989   -1.3707   -1.1335
H    5.1393   -3.1306   -1.0755
H    4.5510   -2.1896   -2.4671
H    1.3447   -2.4729    1.5269
H    1.0660   -1.0675    2.5981
H   -1.7807   -2.3595    0.6167
H   -1.1650   -2.0975    2.2651
H   -3.6800   -2.1658    2.1546
H   -3.0563   -0.6150    2.7756
H   -5.4800   -1.7755    0.8719
H   -5.4794    1.3195   -2.2719
H   -3.3392    2.0376   -1.5458
H   -3.8752    1.7861    1.7576
H   -2.1393    1.4187    1.8997
H   -2.6955    2.6579    0.7493


