%nprocshared=4
%mem=100MW
%chk=YNVOMSDITJMNET-UHFFFAOYSA-N.chk
#b3lyp/6-31+G(d) opt freq

gas opt

0 1
O    2.4177   -1.0356    0.0023
C    1.7580   -0.0145    0.0023
O    2.3727    1.1851   -0.0027
C    0.2895   -0.0881    0.0015
C   -0.5171    1.0082    0.0010
S   -2.1593    0.5516    0.0003
C   -1.7620   -1.1578    0.0007
C   -0.4461   -1.3315   -0.0048
H    3.3397    1.1829   -0.0062
H   -0.1644    2.0290    0.0013
H   -2.4878   -1.9577    0.0008
H    0.0263   -2.3027   -0.0057


