%nprocshared=4
%mem=100MW
%chk=YOJAHJGBFDPSDI-UHFFFAOYSA-N.chk
#b3lyp/6-31+G(d) opt freq

gas opt

0 1
O    3.9332   -0.8957    0.0012
N    3.2555    0.1163    0.0008
O    3.7930    1.2092   -0.0040
C    1.7786    0.0179    0.0000
C    1.1712   -1.2253   -0.0002
C   -0.2047   -1.3243   -0.0005
C   -0.9847   -0.1661   -0.0005
C   -2.4587   -0.2643   -0.0003
O   -2.9948   -1.3543   -0.0002
O   -3.2083    0.8550   -0.0004
C   -4.6500    0.6828   -0.0002
C   -0.3652    1.0852   -0.0003
C    1.0117    1.1696    0.0053
H    1.7757   -2.1203   -0.0006
H   -0.6775   -2.2953   -0.0010
H   -4.9500    0.1294   -0.8901
H   -4.9497    0.1296    0.8899
H   -5.1327    1.6601   -0.0002
H   -0.9626    1.9849   -0.0007
H    1.4922    2.1368    0.0055


