%nprocshared=4
%mem=100MW
%chk=YOYAIZYFCNQIRF-UHFFFAOYSA-N.chk
#b3lyp/6-31+G(d) opt freq

gas opt

0 1
Cl   -2.7157    0.4201   -0.0008
C   -1.2084   -0.4412   -0.0008
C    0.0000    0.2613   -0.0006
C   -0.0000    1.6933    0.0003
N   -0.0000    2.8293    0.0009
C    1.2084   -0.4412   -0.0007
Cl    2.7157    0.4201    0.0002
C    1.2001   -1.8220   -0.0010
C    0.0000   -2.5100   -0.0013
C   -1.2001   -1.8220    0.0046
H    2.1330   -2.3662   -0.0015
H    0.0000   -3.5900   -0.0016
H   -2.1330   -2.3662    0.0044


