%nprocshared=4
%mem=100MW
%chk=YREQHYQNNWYQCJ-UHFFFAOYSA-N.chk
#b3lyp/6-31+G(d) opt freq

gas opt

0 1
O    0.3217   -1.1777    0.0808
C   -1.0302   -0.7964    0.3434
C   -1.8182   -0.7758   -0.9680
C   -1.1821    0.2302   -1.9294
C   -1.7947   -2.1694   -1.5990
C   -3.2439   -0.3737   -0.6911
C   -4.1505   -0.2854   -1.7312
C   -5.4579    0.0834   -1.4801
C   -5.8610    0.3649   -0.1828
O   -7.1467    0.7276    0.0669
C   -7.4908    1.0026    1.4263
C   -8.9683    1.3913    1.5098
C   -4.9495    0.2752    0.8592
C   -3.6445   -0.0991    0.6035
C    1.1480   -1.2284    1.2456
C    2.5441   -1.6388    0.8537
C    3.4769   -0.6772    0.5159
C    4.7621   -1.0557    0.1556
O    5.6816   -0.1120   -0.1766
C    5.3023    1.1921   -0.1312
C    5.4589    1.9211    1.0390
C    5.0724    3.2466    1.0824
C    4.5301    3.8470   -0.0389
C    4.3726    3.1226   -1.2061
C    4.7631    1.7985   -1.2567
C    5.1071   -2.3998    0.1355
C    4.1708   -3.3570    0.4740
C    2.8919   -2.9767    0.8379
H   -1.4834   -1.5131    1.0283
H   -1.0469    0.1964    0.7930
H   -0.1509   -0.0607   -2.1296
H   -1.7434    0.2449   -2.8636
H   -1.1988    1.2230   -1.4798
H   -2.2479   -2.8861   -0.9141
H   -2.3560   -2.1547   -2.5333
H   -0.7635   -2.4602   -1.7993
H   -3.8362   -0.5046   -2.7410
H   -6.1655    0.1529   -2.2930
H   -7.3140    0.1142    2.0327
H   -6.8776    1.8237    1.7974
H   -9.2308    1.6010    2.5467
H   -9.1451    2.2796    0.9034
H   -9.5815    0.5701    1.1387
H   -5.2608    0.4942    1.8699
H   -2.9346   -0.1695    1.4144
H    1.1765   -0.2445    1.7139
H    0.7400   -1.9540    1.9492
H    3.2058    0.3680    0.5320
H    5.8821    1.4526    1.9151
H    5.1937    3.8144    1.9930
H    4.2286    4.8834   -0.0029
H    3.9480    3.5937   -2.0803
H    4.6402    1.2333   -2.1687
H    6.1068   -2.6970   -0.1449
H    4.4387   -4.4031    0.4586
H    2.1613   -3.7267    1.1026


