%nprocshared=4
%mem=100MW
%chk=YRHRIQCWCFGUEQ-UHFFFAOYSA-N.chk
#b3lyp/6-31+G(d) opt freq

gas opt

0 1
O    0.0006   -2.4558    0.7122
C    0.0003   -1.3081    0.3047
C    1.2751   -0.6264    0.0623
C    1.3716    0.7685    0.0961
S    0.0002    1.8028    0.4525
C   -1.3722    0.7682    0.1003
C   -1.2747   -0.6286    0.0575
C   -2.4135   -1.4005   -0.2205
C   -3.6210   -0.7892   -0.4568
C   -3.7184    0.5951   -0.4213
C   -2.6132    1.3660   -0.1521
C    2.6120    1.3665   -0.1593
C    3.7172    0.5954   -0.4284
C    3.6213   -0.7892   -0.4516
C    2.4144   -1.3996   -0.2095
H   -2.3402   -2.4776   -0.2491
H   -4.4952   -1.3862   -0.6707
H   -4.6694    1.0706   -0.6108
H   -2.7041    2.4418   -0.1267
H    2.7006    2.4427   -0.1450
H    4.6674    1.0702   -0.6237
H    4.4962   -1.3872   -0.6599
H    2.3423   -2.4770   -0.2285


