%nprocshared=4
%mem=100MW
%chk=YVWZWRFAFZRJGU-UHFFFAOYSA-N.chk
#b3lyp/6-31+G(d) opt freq

gas opt

0 1
O   -0.8422   -1.8035   -0.2395
C   -1.2016   -0.6541   -0.3829
C   -0.1863    0.4595   -0.3737
O    1.1406   -0.0968   -0.1790
C    2.1694    0.7722   -0.1461
O    1.9636    1.9622   -0.2766
C    3.5479    0.2780    0.0485
C    4.6165    1.1760    0.0831
C    5.9011    0.7077    0.2657
C    6.1320   -0.6485    0.4140
C    5.0777   -1.5439    0.3803
C    3.7874   -1.0887    0.2046
N   -2.5083   -0.3733   -0.5561
C   -3.5092   -1.4487   -0.5734
C   -4.5983   -1.1253    0.4543
C   -5.1664    0.2668    0.1686
O   -6.2050    0.5586    1.1057
C   -4.0543    1.3100    0.2988
C   -2.9597    1.0147   -0.7250
H   -0.2215    0.9911   -1.3247
H   -0.4130    1.1511    0.4377
H    4.4378    2.2347   -0.0332
H    6.7286    1.4012    0.2927
H    7.1397   -1.0098    0.5563
H    5.2649   -2.6012    0.4959
H    2.9653   -1.7887    0.1784
H   -3.9531   -1.5188   -1.5665
H   -3.0334   -2.3950   -0.3160
H   -5.3958   -1.8651    0.3843
H   -4.1702   -1.1449    1.4565
H   -5.5720    0.2929   -0.8428
H   -6.6118    1.4274    0.9841
H   -4.4646    2.3036    0.1182
H   -3.6313    1.2675    1.3025
H   -2.1216    1.6942   -0.5702
H   -3.3566    1.1442   -1.7319


