%nprocshared=4
%mem=100MW
%chk=YZVWKHVRBDQPMQ-UHFFFAOYSA-N.chk
#b3lyp/6-31+G(d) opt freq

gas opt

0 1
N   -3.7223    1.3737   -0.0009
C   -2.7810    0.3991   -0.0010
C   -1.3511    0.7519   -0.0007
C   -0.4523   -0.2037   -0.0008
C    0.9827    0.1259   -0.0003
C    1.3744    1.3780    0.0002
C    0.3692    2.4544    0.0005
C   -0.9165    2.1591   -0.0007
C    2.8149    1.6846    0.0009
C    3.6917    0.7013    0.0009
C    3.2433   -0.7028   -0.0004
C    1.9576   -0.9797    0.0000
C    1.4734   -2.3682   -0.0007
C    0.1946   -2.6620   -0.0002
C   -0.8470   -1.6239   -0.0009
C   -2.1246   -1.9359    0.0001
C   -3.1408   -0.8682    0.0041
H   -3.4550    2.3062   -0.0006
H   -4.6635    1.1390   -0.0051
H    0.6852    3.4872    0.0008
H   -1.6514    2.9504   -0.0008
H    3.1509    2.7109    0.0010
H    4.7480    0.9260    0.0014
H    3.9690   -1.5026   -0.0008
H    2.1940   -3.1726   -0.0021
H   -0.1027   -3.7002   -0.0015
H   -2.4286   -2.9723    0.0013
H   -4.1893   -1.1270    0.0053


