%nprocshared=4
%mem=100MW
%chk=ZAFYATHCZYHLPB-UHFFFAOYSA-N.chk
#b3lyp/6-31+G(d) opt freq

gas opt

0 1
O    0.4602    1.8345   -1.3251
C    0.1568    2.1795   -0.2027
N   -0.1996    3.4571    0.0364
C   -0.2206    4.4291   -1.0595
C   -0.5661    3.8738    1.3922
C    0.1724    1.1782    0.9234
C    0.5965   -0.1673    0.3935
C   -0.2271   -1.1764   -0.0053
C   -1.7107   -1.1434    0.0060
C   -2.3879   -0.0010   -0.4155
C   -3.7678    0.0242   -0.4028
C   -4.4783   -1.0817    0.0277
C   -5.9849   -1.0480    0.0397
C   -3.8112   -2.2186    0.4468
C   -2.4316   -2.2568    0.4328
N    0.5334   -2.2056   -0.4111
C    1.8105   -1.8787   -0.2813
N    1.8798   -0.6028    0.2167
C    3.0907   -0.0157    0.4473
C    4.2369   -0.6795    0.1894
C    5.5638   -0.0145    0.4505
C    4.1990   -1.9878   -0.3208
C    2.9998   -2.5838   -0.5589
H   -1.2069    4.4324   -1.5234
H    0.0004    5.4223   -0.6685
H    0.5292    4.1558   -1.8019
H    0.2754    3.7051    2.0642
H   -0.8224    4.9333    1.3899
H   -1.4240    3.2932    1.7314
H    0.8750    1.5046    1.6902
H   -0.8257    1.1007    1.3546
H   -1.8341    0.8633   -0.7512
H   -4.2937    0.9092   -0.7293
H   -6.3640   -1.4038   -0.9183
H   -6.3563   -1.6900    0.8385
H   -6.3241   -0.0258    0.2077
H   -4.3709   -3.0794    0.7816
H   -1.9116   -3.1451    0.7599
H    3.1316    0.9898    0.8394
H    5.8827   -0.2278    1.4707
H    6.3062   -0.3974   -0.2498
H    5.4623    1.0628    0.3192
H    5.1179   -2.5169   -0.5258
H    2.9589   -3.5892   -0.9510


