%nprocshared=4
%mem=100MW
%chk=ZDXPYRJPNDTMRX-VKHMYHEASA-N.chk
#b3lyp/6-31+G(d) opt freq

gas opt

0 1
O    2.9753   -0.0745    0.9174
C    2.3275    0.2683   -0.0431
O    2.7013    1.3426   -0.7559
C    1.1035   -0.5137   -0.4447
H    1.0626   -0.5920   -1.5311
N    1.1682   -1.8593    0.1412
C   -0.1491    0.2037    0.0625
C   -1.3949   -0.5214   -0.4504
C   -2.6287    0.1852    0.0491
O   -2.5221    1.1716    0.7466
N   -3.8507   -0.2790   -0.2794
H    3.4954    1.8097   -0.4622
H    1.9517   -2.3770   -0.2278
H    1.2070   -1.8137    1.1484
H   -0.1516    0.2036    1.1525
H   -0.1514    1.2313   -0.3008
H   -1.3924   -0.5214   -1.5404
H   -1.3926   -1.5491   -0.0871
H   -3.9359   -1.0679   -0.8373
H   -4.6448    0.1758    0.0422


