%nprocshared=4
%mem=100MW
%chk=ZGRYQDHDZGJMNF-UHFFFAOYSA-N.chk
#b3lyp/6-31+G(d) opt freq

gas opt

0 1
S   -3.3341   -0.1148   -0.0423
O   -3.5290   -1.4403   -0.5160
O   -3.9420    1.0217   -0.6408
N   -3.8011   -0.1126    1.5465
C   -1.5965    0.1750   -0.0757
S   -0.8348    1.7548   -0.1659
C    0.7696    1.0251   -0.1480
C    0.6536   -0.3158   -0.0721
S    2.0675   -1.3961   -0.0209
O    2.1615   -1.8007    1.3380
O    1.8366   -2.3394   -1.0583
C    3.4304   -0.2713   -0.4578
C    3.2359    1.0237    0.3420
O    4.4205    1.8180    0.2539
C    2.0585    1.8089   -0.2175
C   -0.6620   -0.7673   -0.0308
H   -4.2146   -0.9010    1.9315
H   -3.6611    0.6771    2.0920
H    4.3851   -0.7277   -0.1965
H    3.4031   -0.0542   -1.5256
H    3.0418    0.7783    1.3862
H    4.3702    2.6542    0.7370
H    2.2637    2.0618   -1.2577
H    1.9438    2.7303    0.3534
H   -0.9075   -1.8175    0.0262


