%nprocshared=4
%mem=100MW
%chk=ZJYJZEAJZXVAMF-UHFFFAOYSA-N.chk
#b3lyp/6-31+G(d) opt freq

gas opt

0 1
O    3.1364   -1.4192    0.0014
N    2.7960   -0.2497    0.0007
O    3.6386    0.6298   -0.0046
C    1.3584    0.1026    0.0001
C    0.4253   -0.8885    0.0004
C   -0.9402   -0.5575    0.0002
C   -1.3246    0.8068   -0.0001
C   -0.3327    1.8019   -0.0003
C    0.9806    1.4437    0.0051
C   -2.6905    1.1378   -0.0007
C   -3.6234    0.1469   -0.0009
C   -3.2454   -1.1947   -0.0006
C   -1.9325   -1.5529    0.0000
H    0.7329   -1.9237    0.0003
H   -0.6107    2.8455   -0.0006
H    1.7411    2.2106    0.0053
H   -2.9982    2.1730   -0.0006
H   -4.6723    0.4040   -0.0010
H   -4.0060   -1.9615   -0.0008
H   -1.6546   -2.5965    0.0003


