%nprocshared=4
%mem=100MW
%chk=ZLAQATDNGLKIEV-UHFFFAOYSA-N.chk
#b3lyp/6-31+G(d) opt freq

gas opt

0 1
S    2.8285    0.1810   -0.0336
C    1.0887   -0.0974   -0.0164
N    0.2676    0.9430    0.0034
C   -1.0476    0.7663    0.0167
O   -1.8838    1.8325    0.0364
C   -1.5571   -0.5317    0.0096
C   -3.0442   -0.7757    0.0238
C   -0.6678   -1.5896   -0.0111
N    0.6331   -1.3418   -0.0290
H    3.0862    0.2059    1.3525
H   -2.1366    2.1504   -0.8411
H   -3.4141   -0.8244   -1.0004
H   -3.2531   -1.7177    0.5307
H   -3.5410    0.0387    0.5512
H   -1.0299   -2.6071   -0.0171


