%nprocshared=4
%mem=100MW
%chk=ZMANZCXQSJIPKH-UHFFFAOYSA-N.chk
#b3lyp/6-31+G(d) opt freq

gas opt

0 1
N   -0.0069   -0.0218    0.0506
C    0.8041   -1.1747   -0.3631
C    2.1474   -1.1421    0.3685
C    0.6032    1.2380   -0.3950
C   -0.0221    2.4061    0.3701
C   -1.3849   -0.1431   -0.4436
C   -2.1419   -1.1685    0.4028
H    0.2779   -2.0966   -0.1156
H    0.9750   -1.1315   -1.4387
H    2.6737   -0.2202    0.1210
H    1.9765   -1.1853    1.4442
H    2.7492   -1.9975    0.0616
H    1.6758    1.2103   -0.2027
H    0.4289    1.3683   -1.4631
H    0.4201    3.3422    0.0289
H   -1.0969    2.4250    0.1894
H    0.1649    2.2834    1.4369
H   -1.8825    0.8242   -0.3735
H   -1.3706   -0.4698   -1.4834
H   -1.7033   -2.1555    0.2561
H   -2.0728   -0.8930    1.4551
H   -3.1889   -1.1876    0.1002


