%nprocshared=4
%mem=100MW
%chk=ZNOLGFHPUIJIMJ-UHFFFAOYSA-N.chk
#b3lyp/6-31+G(d) opt freq

gas opt

0 1
S    1.7109    0.8876    1.2798
P    2.2574   -0.0030   -0.2632
O    3.6803    0.5779   -0.7427
C    4.7659    0.8172    0.1554
O    2.3970   -1.5768    0.0464
C    3.0370   -2.0856    1.2184
O    1.1670    0.2204   -1.4265
C   -0.1191    0.0657   -1.0157
C   -0.8298    1.1547   -0.5316
C   -2.1370    0.9949   -0.1151
C   -2.9095    2.1772    0.4108
C   -2.7377   -0.2489   -0.1807
N   -4.1389   -0.4171    0.2653
O   -4.4766   -1.4359    0.8412
O   -4.9543    0.4632    0.0565
C   -2.0318   -1.3355   -0.6626
C   -0.7255   -1.1799   -1.0850
H    5.0474   -0.1167    0.6420
H    5.6179    1.2084   -0.4006
H    4.4603    1.5422    0.9097
H    3.0071   -3.1751    1.2047
H    4.0741   -1.7509    1.2404
H    2.5180   -1.7190    2.1040
H   -0.3611    2.1263   -0.4802
H   -3.5040    2.6098   -0.3939
H   -3.5690    1.8516    1.2152
H   -2.2141    2.9254    0.7913
H   -2.5032   -2.3059   -0.7129
H   -0.1744   -2.0291   -1.4613


