%nprocshared=4
%mem=100MW
%chk=ZRVUJXDFFKFLMG-UHFFFAOYSA-N.chk
#b3lyp/6-31+G(d) opt freq

gas opt

0 1
O   -1.2272    1.8107    0.3511
C   -0.8791    0.6615    0.1475
N   -1.8006   -0.2839   -0.1236
C   -3.1525    0.0262   -0.0607
S   -4.4247   -1.0708   -0.3785
C   -5.6092    0.1922   -0.0536
C   -7.1070    0.0386   -0.1178
C   -4.9486    1.3083    0.2599
N   -3.6341    1.1885    0.2530
C    0.4967    0.3192    0.1899
C    1.4140    1.2791   -0.0582
C    2.8658    1.0606   -0.0402
C    3.3945   -0.2353   -0.0896
S    2.2680   -1.5938   -0.1768
O    2.0076   -1.8243   -1.5546
O    2.7588   -2.5924    0.7071
N    0.8566   -1.0077    0.4947
C    0.0227   -1.8446    1.3610
C    4.7515   -0.4413   -0.0711
C    5.6120    0.6437   -0.0037
C    5.1051    1.9302    0.0442
C    3.7434    2.1475    0.0272
O    0.9650    2.5255   -0.3428
H   -1.5194   -1.1809   -0.3627
H   -7.3555   -0.9846   -0.3996
H   -7.5372    0.2612    0.8587
H   -7.5115    0.7280   -0.8588
H   -5.4491    2.2339    0.5033
H    0.2843   -1.6624    2.4033
H   -1.0273   -1.5994    1.2017
H    0.1908   -2.8949    1.1225
H    5.1476   -1.4453   -0.1085
H    6.6801    0.4843    0.0111
H    5.7812    2.7709    0.0958
H    3.3556    3.1547    0.0651
H    1.6679    3.1680   -0.5109


