%nprocshared=4
%mem=100MW
%chk=ZSDSQXJSNMTJDA-UHFFFAOYSA-N.chk
#b3lyp/6-31+G(d) opt freq

gas opt

0 1
F   -4.1306   -0.3149   -1.3108
C   -3.6692   -0.1138   -0.0055
F   -4.1892    1.0853    0.4935
F   -4.0852   -1.1755    0.8050
C   -2.1637   -0.0451   -0.0098
C   -1.5292    1.1724   -0.1753
C   -0.1498    1.2390   -0.1793
N    0.5286    2.5427   -0.3560
O   -0.1298    3.5575   -0.4979
O    1.7452    2.6006   -0.3595
C    0.6004    0.0811   -0.0170
N    1.9957    0.1449   -0.0202
C    2.5420   -0.2120    1.2959
C    2.4456    0.9941    2.2323
C    2.9019    0.5884    3.6352
C    2.5594   -0.7098   -1.0736
C    2.6318    0.0765   -2.3840
C    3.1034   -0.8480   -3.5082
C   -0.0402   -1.1402    0.1489
N    0.7550   -2.3765    0.3223
O    0.1985   -3.4596    0.3515
O    1.9660   -2.3108    0.4356
C   -1.4200   -1.1989    0.1573
H   -2.1130    2.0721   -0.3018
H    1.9718   -1.0422    1.7130
H    3.5860   -0.5060    1.1884
H    3.0843    1.7951    1.8600
H    1.4132    1.3415    2.2723
H    2.8333    1.4477    4.3023
H    2.2633   -0.2126    4.0076
H    3.9343    0.2410    3.5952
H    3.5610   -1.0288   -0.7854
H    1.9244   -1.5852   -1.2097
H    1.6446    0.4696   -2.6269
H    3.3346    0.9023   -2.2739
H    4.0906   -1.2411   -3.2653
H    2.4005   -1.6738   -3.6183
H    3.1550   -0.2878   -4.4418
H   -1.9188   -2.1481    0.2863


