%nprocshared=4
%mem=100MW
%chk=ZTMKADLOSYKWCA-UHFFFAOYSA-N.chk
#b3lyp/6-31+G(d) opt freq

gas opt

0 1
O   -0.7671   -2.0526    0.0104
C    0.1312   -1.2336   -0.0143
N   -0.1673    0.0788   -0.0240
C    0.8184    0.9973   -0.0516
O    0.5498    2.1851   -0.0603
C    2.1703    0.5709   -0.0700
C    2.4422   -0.7500   -0.0596
N    1.4089   -1.6512   -0.0261
H    1.6022   -2.6017   -0.0180
C    3.9384   -0.9769   -0.0835
C    4.5556    0.3785    0.3251
C    3.4529    1.3722   -0.1012
C   -1.5673    0.5099   -0.0049
C   -2.2881   -0.0434   -1.2359
C   -3.7502    0.4068   -1.2160
C   -4.4283   -0.1183    0.0510
C   -3.7075    0.4349    1.2820
C   -2.2454   -0.0152    1.2621
H    4.2157   -1.7505    0.6326
H    4.2635   -1.2540   -1.0863
H    4.7239    0.4214    1.4012
H    5.4807    0.5655   -0.2202
H    3.6446    1.7412   -1.1088
H    3.3982    2.2023    0.6030
H   -1.6123    1.5989   -0.0164
H   -1.8050    0.3308   -2.1385
H   -2.2430   -1.1324   -1.2244
H   -3.7952    1.4958   -1.2275
H   -4.2637    0.0127   -2.0930
H   -5.4700    0.2024    0.0652
H   -4.3833   -1.2073    0.0625
H   -3.7526    1.5240    1.2705
H   -4.1906    0.0608    2.1846
H   -2.2004   -1.1043    1.2735
H   -1.7319    0.3789    2.1390


