%nprocshared=4
%mem=100MW
%chk=ZWEHNKRNPOVVGH-UHFFFAOYSA-N.chk
#b3lyp/6-31+G(d) opt freq

gas opt

0 1
O   -0.3475   -1.2593    0.0002
C   -0.4927   -0.0604    0.0020
C    0.7124    0.8445    0.0014
C    1.9864   -0.0028   -0.0015
C   -1.8789    0.5308   -0.0015
H    0.6931    1.4747   -0.8877
H    0.6957    1.4724    0.8923
H    2.0057   -0.6330    0.8876
H    2.0031   -0.6307   -0.8924
H    2.8580    0.6518   -0.0020
H   -2.2165    0.6714    1.0254
H   -1.8623    1.4929   -0.5134
H   -2.5605   -0.1444   -0.5188


