%nprocshared=4
%mem=100MW
%chk=ZXAGXLDEMUNQSH-UHFFFAOYSA-N.chk
#b3lyp/6-31+G(d) opt freq

gas opt

0 1
C   -4.3183   -0.6044   -0.4081
C   -4.8791   -0.8903    0.9864
C   -2.9170   -0.0637   -0.2848
C   -1.8717   -0.9302   -0.2840
C   -0.5557   -0.4337   -0.1691
C   -0.3568    1.0147   -0.0531
C    0.9296    1.5390    0.0616
C    2.0253    0.6781    0.0653
C    1.8264   -0.7703   -0.0507
C    0.5405   -1.2947   -0.1653
C    2.9591   -1.6130   -0.0440
C    4.1976   -1.0692    0.0688
C    4.3868    0.3088    0.1796
C    3.3418    1.1750    0.1794
C   -1.4888    1.8574   -0.0610
C   -2.7274    1.3143   -0.1803
H   -4.3021   -1.5263   -0.9893
H   -4.9484    0.1303   -0.9095
H   -5.8926   -1.2814    0.8972
H   -4.2490   -1.6250    1.4878
H   -4.8952    0.0316    1.5676
H   -2.0462   -1.9926   -0.3702
H    1.0762    2.6056    0.1467
H    0.3941   -2.3613   -0.2504
H    2.8408   -2.6832   -0.1276
H    5.0593   -1.7203    0.0731
H    5.3910    0.6963    0.2676
H    3.5162    2.2373    0.2666
H   -1.3703    2.9276    0.0233
H   -3.5890    1.9656   -0.1856


