%nprocshared=4
%mem=100MW
%chk=ZXEKIIBDNHEJCQ-UHFFFAOYSA-N.chk
#b3lyp/6-31+G(d) opt freq

gas opt

0 1
O    1.9074   -0.0211   -0.1485
C    0.7246    0.6499    0.2908
C   -0.5002    0.0011   -0.3571
C   -0.6409   -1.4374    0.1448
C   -1.7542    0.7955    0.0137
H    2.7245    0.3382    0.2234
H    0.6452    0.5737    1.3752
H    0.7745    1.7000    0.0030
H   -0.3793   -0.0022   -1.4404
H   -1.5135   -1.8995   -0.3168
H    0.2525   -2.0033   -0.1193
H   -0.7618   -1.4340    1.2281
H   -1.6540    1.8203   -0.3439
H   -2.6268    0.3333   -0.4479
H   -1.8751    0.7989    1.0969


