%nprocshared=4
%mem=100MW
%chk=ZXFXBSWRVIQKOD-UHFFFAOYSA-N.chk
#b3lyp/6-31+G(d) opt freq

gas opt

0 1
Cl    1.9989   -1.1431    1.6825
C    1.3370   -0.9049    0.0236
Cl    2.1576   -1.9465   -1.1955
C   -0.2364   -1.0587   -0.0180
Cl   -0.8808   -2.6538    0.5295
C   -0.6135    0.1570    0.8295
C    0.2751    1.1173    0.6322
Cl    0.2829    2.6764    1.3900
C    1.2878    0.6090   -0.4000
Cl    2.8582    1.4871   -0.4828
C    0.4652    0.5342   -1.7165
C   -0.4646   -0.6883   -1.5140
C   -1.8933   -0.2186   -1.7608
Cl   -2.9856   -0.6074   -0.3877
C   -1.8598    1.2923   -2.0302
O   -1.4153    2.1329   -0.9570
C   -0.4078    1.7641   -1.8857
Cl   -1.9661    0.2751    1.9162
H    1.1133    0.3953   -2.5771
H   -0.1842   -1.5174   -2.1905
H   -2.2788   -0.7177   -2.6686
H   -2.5271    1.6891   -2.7989
H   -0.0423    2.5255   -2.5740


