%nprocshared=4
%mem=100MW
%chk=ZXQYGBMAQZUVMI-UHFFFAOYSA-N.chk
#b3lyp/6-31+G(d) opt freq

gas opt

0 1
Cl   -5.7554   -0.5336    0.2691
C   -4.1151   -1.0512    0.0344
C   -3.1820   -0.1704   -0.2374
C   -3.5339    1.2909   -0.3461
C   -2.8429    2.2575    0.6178
C   -3.6537    3.4532    1.1213
C   -1.8480    1.6664    1.6186
C   -2.4515    2.2417   -0.8612
C   -1.1152    1.6453   -1.2211
O   -1.0533    0.7369   -2.0154
O    0.0062    2.1231   -0.6591
C    1.2576    1.5006   -1.0526
C    1.8098    2.2048   -2.2213
N    2.2360    2.7484   -3.1232
C    2.2378    1.5774    0.0895
C    3.1310    0.5452    0.3031
C    4.0334    0.6168    1.3544
O    4.9132   -0.3969    1.5664
C    4.9634   -1.3999    0.6511
C    5.4418   -1.1508   -0.6274
C    5.4918   -2.1722   -1.5560
C    5.0656   -3.4419   -1.2126
C    4.5880   -3.6928    0.0606
C    4.5417   -2.6763    0.9949
C    4.0363    1.7256    2.1889
C    3.1413    2.7548    1.9710
C    2.2463    2.6833    0.9191
C   -3.7621   -2.5118    0.1492
F   -2.3922   -2.6798   -0.0791
F   -4.0806   -2.9690    1.4325
F   -4.4860   -3.2424   -0.7991
H   -2.1615   -0.4925   -0.3834
H   -4.5663    1.5066   -0.6212
H   -4.5351    3.0961    1.6541
H   -3.0396    4.0510    1.7948
H   -3.9642    4.0644    0.2739
H   -1.0943    1.0885    1.0836
H   -1.3640    2.4730    2.1694
H   -2.3767    1.0165    2.3160
H   -2.7717    3.0832   -1.4755
H    1.0792    0.4562   -1.3086
H    3.1264   -0.3168   -0.3475
H    5.7745   -0.1591   -0.8962
H    5.8638   -1.9787   -2.5513
H    5.1055   -4.2391   -1.9401
H    4.2550   -4.6852    0.3261
H    4.1689   -2.8728    1.9893
H    4.7375    1.7836    3.0083
H    3.1431    3.6179    2.6201
H    1.5476    3.4893    0.7502


