%nprocshared=4
%mem=100MW
%chk=ZZUFCTLCJUWOSV-UHFFFAOYSA-N.chk
#b3lyp/6-31+G(d) opt freq

gas opt

0 1
Cl    2.3129   -2.5787   -0.0497
C    1.4398   -1.0783   -0.0512
C    2.1339    0.1235   -0.0497
S    3.8959    0.1179   -0.0457
O    4.2966   -0.7859   -1.0663
O    4.3014    1.4794   -0.0101
N    4.3806   -0.5520    1.3890
C    1.4530    1.3200   -0.0518
C    0.0546    1.3270   -0.0550
C   -0.6795    2.6032   -0.0577
O   -1.8900    2.6077   -0.1666
O   -0.0093    3.7665    0.0605
C   -0.6452    0.1094   -0.0560
N   -2.0336    0.1025   -0.0597
C   -2.7601   -1.1639    0.0606
C   -4.2430   -0.8972    0.0302
O   -5.0191   -0.6528    1.0987
C   -6.2863   -0.4607    0.6972
C   -6.3309   -0.5816   -0.6418
C   -5.0128   -0.8577   -1.0722
C    0.0588   -1.0879   -0.0597
H    5.2175   -1.0401    1.4382
H    3.8278   -0.4563    2.1803
H    1.9982    2.2522   -0.0506
H   -0.5344    4.5784    0.0535
H   -2.5225    0.9362   -0.1418
H   -2.4914   -1.8172   -0.7696
H   -2.4969   -1.6459    1.0021
H   -7.1269   -0.2459    1.3403
H   -7.2051   -0.4830   -1.2682
H   -4.6875   -1.0136   -2.0902
H   -0.4742   -2.0272   -0.0608


